 1
ABSTRACT 
 
 This work is emphasized on studying 
structural response and the vibration characteristics 
of the 1.5 MW horizontal axis wind turbine (HAWT) 
blade made of composite material. The FAST 
(Fatigue, Aerodynamic, Structures & Turbulence) 
code was adopted to predict wind induced loading 
for the 1.5 MW three-bladed upwind HAWT. Three 
wind turbine operational conditions were studied in 
this work in order to examine the rotational speed, 
torque, and electric power generation of the current 
wind turbine system. The structure response of 
turbine blade with glass/epoxy, or carbon/epoxy 
fiber reinforced material built inside under specified 
operational conditions were also simulated. The 
turbine blade’s tip deflection were also presented. 
In addition, the vibration mode shape and structural 
natural frequencies for the composite turbine 
structure were also reported. 
 
(Keywords: composite material, wind turbine blade, 
FEA, natural frequency) 
 
摘 要 
 
 本研究主要著眼於研究 1.5MW (百萬瓦)複
合材料風車葉片於穩定運轉期間之葉片結構反
應與其自然頻率分析。過程中引用美國國家再生
能源實驗室 NREL (National Renewable Energy 
Laboratory)所發展之 FAST v6.0 風車模擬程式，
以便輸出 1.5MW、3 個葉片、上風式、水平軸式
風車的相關運轉資訊，再從 FAST 程式輸出資訊
中轉換獲得該葉片運轉期間所承受之等效力和
等效力矩負載，以提供 ANSYS 有限元素分析軟
體之風車葉片模型進行結構變形量分析。經比對
FAST 及 ANSYS 兩種分析程式之複材葉片結構
尖端變形量，發現有相當不錯之結果。本研究並
參照玻璃纖維材質葉片之幾何外型規格，另以碳
纖維單層板及 6063 鋁合金為主要材料，分別取
代玻璃纖維葉片之主要材料，但維持原有巴沙木
(Balsa-core)之設定規格，再建構成兩種不同材質
之葉片模型。除分析三種不同材質葉片之自然振
動頻率外，並討論此不同材質葉片對風車運轉特
性之影響。本研究經由上述的方法，將可以提供
風車設計者先期預判風車穩定運轉期間之葉片
受力變形情況及自然振動模態與頻率，以便有效
降低後續實體驗證測試之成本。 
 
關鍵字：複合材料，風車葉片，有限元素分析，
自然頻率。 
 
1. 簡介 
 
追朔人類對風力的利用已有古老的歷史，現
今在風力利用技術上已臻成熟的歐盟先進國
家，以及積極開拓新能源的美國，均一再評價風
力為取代日漸枯竭之石油能源的有力候補之
一，因此如何充分、有效率而且低成本的從地球
上轉化這項取之不竭、用之不盡的大自然原始能
量，創造出現代人類不可或缺的電能，正是各先
進國家不斷極力投入研究發展的目標。因為再生
能源具有相當多優點，除了可以促進能源多元
化，亦可利用本土的自然資源，提供長期具成本
有效性且符合環境永續發展所需的乾淨能源，最
重要的是可以有效減少二氧化碳排放與酸雨等
環境污染因素持續惡化。然而國內探討風力發電
裝備，特別是複合材料風車葉片之相關研究仍相
當缺乏，因此探討風車葉片相關力學特性與複合
材料於風車葉片上之運用特性，便是本研究之動
機與目的[1,2]。 
複合材料在風力發電上的應用，實際上就是
在風車葉片上的應用。葉片的設計、結構、選材、
工法、製造、測試、實驗乃至生產必須緊密結合，
其發展趨勢更是朝著大功率、長葉片方向演進。
為了達到大葉片輕量化的目的，所以複合材料乃
現今最佳之選擇。今先進百萬瓦級大型風車葉片
在製造工法上主要分為兩種：即開模手積層塗布
法 (hand lay-up/wet lay-up method)與閉模滲透
法。風車葉片製造大廠 LM Glasfibe 公司採用閉
 3
翼形模型如圖 2 至圖 4 所示。葉片翼展總長度為
33.89 米，在翼展方向（從葉根向葉尖延伸）平
均每 2.217 米設定一節點（共計 15 個節點，葉根
起始點之節點編號為”0”），各節點處設定之翼形
（foil type）、翼弦長（chord）、空氣動力學扭
轉角（aerotwst）及翼展節點距離軸心之距離
（Rnodes）幾何資料摘錄自 FAST 主程式之案例 
Test12 [6]詳如表 1；葉片氣動力扭轉角與翼展節
點位置之關係圖如圖 5 所示；翼弦長與翼展節點
位置之關係圖如圖 6 所示。風車葉片結構模型採
用現今商業運轉葉片之設計構型，主要構件為箱
型翼樑（box-spar），腹板（shear web）安裝於翼
弦 15%及 50%等兩處位置，腹板之間採用厚實之
翼樑蓋（spar cap）加以強化，葉片表層及內部前
/後腹板（forward/rear shear web）均採用三軸向
複合材料積層板（triaxial fiber laminate）並以巴
沙木（balsa-core）為核心之夾心層結構，圖 7 所
示為距離軸心 25﹪翼展位置之 S818 翼形剖面結
構示意圖；葉片殼體結構所使用之複材積層板及
內建材料詳如表 2 基準型葉片結構殼體
（structure-shell）材料表。其中前/後腹板（shear 
web）之結構為巴沙木核心，並於巴沙木雙面覆
蓋 1.27mm 之三軸向纖維強化複材層板。葉片殼
體與翼樑蓋為環氧樹脂基纖維強化層板，所使用
之三軸向纖維層板有 CDB340（+45/-45/0 度方向
之玻璃纖維，各軸向纖維含量比率分別為
25%/25%/50%）；翼樑蓋由非主軸向纖維層板及
A260 單軸向玻璃纖維層板所組成，其中非主軸
向纖維層板重量含量比率為 30%，另 A260 單軸
向玻璃纖維層板重量含量比率為 70%。葉片結構
組成之各項材料特性（material properties）資料
源自於美國蒙大拿州大學（ Montana State 
University）[4]。 
表 1  葉片翼展方向幾何資料表[6] 
Node 
No. 
Rnodes Aerotwst DRnodes Chord Foil Type
1 2.85833 11.1 2.21667 1.949 Cylinder
2 5.075 11.1 2.21667 2.269 S818
3 7.29167 11.1 2.21667 2.589 S818
4 9.50833 10.41 2.21667 2.743 S818
5 11.725 8.38 2.21667 2.578 S818
6 13.94167 6.35 2.21667 2.412 S818
7 16.15833 4.33 2.21667 2.247 S818
8 18.375 2.85 2.21667 2.082 S825
9 20.59167 2.22 2.21667 1.916 S825
10 22.80833 1.58 2.21667 1.751 S825
11 25.025 0.95 2.21667 1.585 S825
12 27.24167 0.53 2.21667 1.427 S825
13 29.45833 0.38 2.21667 1.278 S825
14 31.675 0.23 2.21667 1.129 S826
15 33.89167 0.08 2.21667 0.98 S826
註：長度單位：公尺(m); 參數定義：RNodes_葉片翼展節點
與轉子旋轉中心之距; AeroTwst：該節點處之空氣動力學扭
轉角; DRNodes：兩節點間之距離; Chord：該節點處之翼弦
長; Nfoil：該節點處使用的翼形。 
 
圖 1  1.5MW 風車葉片翼展外型輪廓[4] 
 
S818 foil
-0.2
-0.15
-0.1
-0.05
0
0.05
0.1
0.15
0.2
0 0.2 0.4 0.6 0.8 1
 
圖 2  S818 foil 座標圖示 
 
S825 foil
-0.2
-0.15
-0.1
-0.05
0
0.05
0.1
0.15
0.2
0 0.2 0.4 0.6 0.8 1
 
圖 3  S825 foil 座標圖示 
 5
依據混合律(Rule of Mixtures)[7]可計算獲得單層
lamina 蒲松比為： 
                                                        
因單層 lamina 理論上具備 Transversely Isotropic
之特性，所以可合理假設 
 
另依據楊氏模數及剪切模數之關係式[7]，則可計
算獲得該單層板剪切模數 23G ： 
                                                       
本研究之風車葉片主要依據上述計算獲得之
E-Glass fiber 單層板(lamina)材料參數為基礎，以
疊層方式配合不同之纖維排列角度進行鋪設，並
輔以巴沙木做為結構之夾心層增加結構之厚度。 
依據 S818、S825、S826 三種翼形座標點及
表 1 葉片翼展方向幾何資料表，完成葉片幾何外
型如圖 8 至圖 10。有關風車葉片所匯入之負載
檔案（副檔名為.lod），乃由 FAST v6.0 程式執行
後，再經由人工方式依據 ANSYS 可讀取之 Load 
Step 標準格式編輯而成。有關該負載檔案經匯入
ANSYS 葉片模型後如圖 11。 
 
圖 8  葉片幾何外型 Plot Line 示意圖 
 
 
圖 9  葉片幾何外型 Plot Area 示意圖 
 
圖 10  葉片完成 mesh 之示意圖 
 
 
圖 11  匯入葉片空氣動力負載示意圖 
 
 
3.1  FAST v6.0 軟體於風車葉片結構分析之運用 
由於本研究之目的在於分析風車葉片於正常
穩定運轉期間之結構反應，然為使風車葉片結構
於 ANSYS 分析程序中，能施予接近穩定運轉實
況之合理氣動力負載，研究過程以引用 FAST 分
析後所輸出之葉片各節點（葉根至葉尖共分成 15
個節點）加速度與力矩，來轉換產生模擬隨時間
變化之負載，再運用 ANSYS 在結構上之靜態
（Static）分析能力，以比對兩種不同軟體之分析
結果。有關 FASTv6.0 之執行流程如圖 12。 
圖 12  FAST 分析流程圖[5] 
 
3.2  三種不同材質葉片於FAST三項運轉案例之
分析結果比較 
Tower input file
( .DAT file ) 
FAST 
Output file 
( .OUT .OPT  
.FSM file ) 
Blade input file 
( .DAT file ) 
AeroDyn input 
file ( .IPT file ) 
ADAMS-specific input 
file (.DAT file ) 
Primary input 
file(.FST file) 
ADAMS input file 
( .ADM file)
ADAMS command 
file( .ACF file)
      27.04.013.04.022.01212  mmff 
27.01312  3.03223  m
    GPa
EG 84.2
3.012
38.7
12 32
2
23  
 7
0 10 20 30 40
Time (sec)
600
700
800
900
1000
R
ot
or
To
rq
ue
 (K
N
-m
)
Rotor Torque vs Time
Glass fiber blade
Carbon fiber blade
Aluminum blade
 
圖 14  三種材質葉片之時間與風車轉子軸扭矩關係圖 
 
0 10 20 30 40
Time (sec)
1300
1400
1500
1600
1700
1800
G
en
er
at
or
 P
ow
er
 (K
w
)
Generator Power vs Time
Glass fiber blade
Carbon fiber blade
Aluminum blade
 
圖 15  三種材質葉片之時間與風車發電機發電功率關
係圖 
 
  
0 10 20 30 40
Time (sec)
5
10
15
20
25
30
R
ot
or
 S
pe
ed
 (r
pm
)
rpm vs Time_Glass fiber blade
Normal pitch mode
Pitch failure mode
No pitch control mode
 
圖 16  玻璃纖維葉片三種 Pitch操作模式之轉速與時間關係 
0 10 20 30 40
Time (sec)
0
200
400
600
800
1000
R
ot
or
 T
or
qu
e 
(K
N
-m
)
Torque vs Time_Glass fiber blade
Normal pitch mode
Pitch failure mode
No pitch control mode
 
圖 17  玻璃纖維葉片三種 Pitch操作模式之扭矩與時間關係 
0 10 20 30 40
Time (sec)
0
500
1000
1500
2000
2500
G
en
er
at
or
 P
ow
er
 (K
w
)
Generator Power vs Time_Glass fiber blade
Normal pitch control mode
Pitch failure mode
No pitch control mode
 
圖 18  玻璃纖維葉片三種不同 Pitch操作模式之發電功率與
時間關係圖 
 
圖 19  s818 翼形(airfoil)之升力與阻力係數關係圖[8] 
 
 
圖 20  FAST 風車葉片模型[8] 
 
3.3  風車葉片 ANSYS 模型與 FAST 模型分析結
果比對 
由於 FAST 所建立之風車葉片模型，僅以 15
塊平板模擬運轉時各時間點之葉片尖端最大變
形量[8]如圖 20，而本研究擬採用實際 1.5MW 葉
片之結構幾何外型及材料，於 ANSYS 軟體中直
接建構葉片有限元素模型，再匯入 FAST 同規格
葉片模型之相關負載(load step)，藉以比對兩種不
同軟體建立同規格葉片模型，在相同運轉條件下
之分析結果。為驗證全長 33.89 m 玻璃纖維材質
風車葉片尖端最大變形量在 ANSYS 程式中分析
結果之準確性，本研究分別以 FAST 和 ANSYS
分析出葉片尖端在 flapwise、edgewise 與 spanwise
等方向第 30~40 秒最大變形量，經互相比對
 9
30 32 34 36 38 40
Time (sec)
0
1
2
3
4
D
ef
le
ct
io
n 
(m
)
Flapwise Deflection
Glass fiber blade
Carbon fiber blade
Aluminum blade
0 5 10 15 20 25
0
5
10
15
20
25
 
圖 25 三種材質葉片 Flapwise 方向葉尖最大變形量比對圖 
 
30 32 34 36 38 40
Time (sec)
-0.8
-0.4
0
0.4
0.8
D
ef
le
ct
io
n 
(m
)
Edgewise Deflection
Glass fiber blade
Carbon fiber blade
Aluminum blade
 
圖 26 三種材質葉片 Edgewise 方向葉尖最大變形量比對圖 
 
30 32 34 36 38 40
Time (sec)
-0.04
-0.02
0
0.02
D
ef
le
ct
io
n 
(m
)
Spanwise Deflection
Glass fiber blade
Carbon fiber blade
Aluminum blade
 
圖 27 三種材質葉片 Spanwise 方向葉尖最大變形量比對圖 
 
4.  葉片自然振動模態（Modal）分析 
 
葉片自然振動模態及頻率主要受葉片結構
剛性與質量的影響，自然振動模態分析的目的在
於分析風車葉片振動特徵，風車系統設計過程當
注意避免葉片自然振動頻率與風車轉速發生共
振現象。 
由於風車葉片的展弦比（Span：Chord）大，
經過 ANSYS 分析後，其模態外型均呈現彎曲型
態(Flapwise 與 Edgewise 方向之 Bending mode)。
以玻璃纖維、6063 鋁合金及碳纖維等材質之葉片
進行前三個模態分析，經綜整獲得之自然頻率值
詳如表 4。於表列中可以發現【楊氏模數：葉片
質量】比值之排序為碳纖維葉片＞6063 鋁合金葉
片＞玻璃纖維葉片，透過 ANSYS 模態分析結
果，其相對應前三個模態之自然頻率值亦顯示出
碳纖維葉片＞6063 鋁合金葉片＞玻璃纖維葉
片，以上三種材質葉片之第一至第三模態分析外
形如圖 28 至 36。 
 
表 4  三種不同材質葉片模態分析之自然頻率表 
葉
片
種
類
楊氏
模數
(GPa)
葉片
質量
(Kg)
楊氏
模數/  
葉片
質量 
第一
模態 
頻率
(Hz) 
第二
模態
頻率
(Hz)
第三
模態
頻率
(Hz) 
玻
璃
纖
維
葉
片
30.89 3912 0.007 0.933  1.494 3.262 
鋁
合
金
葉
片
68.9 6025 0.011 1.493  1.707 6.997 
碳
纖
維
葉
片
131 3364 0.038 2.06  2.495 11.477 
 
 11
 
圖 36  碳纖維葉片第三振動模態(11.477Hz)外形圖 
 
5.  結論 
由 ANSYS 及 FAST 的共同分析結果得知，
風車葉片於穩定運轉期間之最大位移變形處在
葉尖自由端，且以 Flapwise 方向彎曲之型態為主
要模式，其葉尖變形方向固定由 Foil 的正壓面向
負壓面彎曲；另以 Edgewise 方向彎曲之型態為次
要模式，彎曲方向因受葉片重力影響，故呈現向
葉片前緣或後緣之規律性變化。由於葉片運轉期
間除了需要抵抗以上型態之變形外，另必須承受
葉片本身之重量及運轉時的離心力，所以在翼剖
面方向（x 與 y 軸方向）必須要有足夠之剛性，
而翼展方向（z 軸方向）必須要有足夠之拉伸強
度。大型葉片採用複合材料為主要結構，乃因具
備比一般金屬合金高的「比強度」與「比剛性」
等材料特性，除了可以大幅降低單一葉片之質量
外，其優良的材料強度及對應力之分散性能，確
實是之絕佳選擇。 
經由模態分析之結果，可以讓葉片設計者預
判成品之自然頻率值，並可以讓風車系統設計者
了解該葉片之振動特性，進一步設計控制風車葉
片旋轉速度，以避免葉片自然頻率與風車轉速發
生共振現象。 
以上之研究過程，可以協助葉片或風車系統
設計者先期發現影響系統運作之重要參數，研判
是否可以滿足工程分析或設計上的需求，以進行
必要之修正及改善，再經由數值模擬預判未來成
品之適用性，以有效降低後續實體測試之錯誤率
及測試成本，並提高後續產品運轉之可靠性。 
 
6. 參考文獻 
 
[1] 鄭泗滄、尤芳忞、徐彬堯、翁慶隆，“風車
葉片運動模擬與動態分析＂， Journal of 
Aeronautics, Astronautics and Aviation, Series 
B, 38(2), pp.79-88, 2006. 
[2] 鄭泗滄、尤芳忞、陳興加、徐彬堯、翁慶隆，
“鋁合金材料應用於風車葉片之研究，＂第
二屆台灣風能學術研討會論文集，paper no. 
301, pp. 83-88, Taipei, Taiwan, ROC, 2007. 
[3] LM Glasfiber，＂The supplier of blades for 
wind turbines”，http://www.lmglasfiber.com/ 
Technology/Design/Wing%20construction.aspx  
[4] Dayton A. Griffin， ”Blade System Design 
Studies Volume I: Composite Technologies for 
Large Wind Turbine Blades” SAND2002-1879, 
July, 2002. 
[5] Jonson M. Jonkman, Marshall L. Buhl 
Jr.，”FAST User’s Guide”，National Renewable 
Energy Laboratory ， Technical Report 
NREL/EL-500-38230, August, 2005 
[6] Jason Jonkman ,“An aeroelastic analysis code 
for horizontal-axis wind turbines,” online, 
National Wind Technology Center http:// 
wind.nrel.gov/designcodes/simulators/fast 
[7] Ronald F. Gibson，Principles of Composite 
Material Mechanics，McGraw-Hill, Inc., New 
York, USA. 
[8] 徐彬堯，” 風車葉片運動模擬與動態分析”， 
國立成功大學航太研究所碩士論文，2005年1
月。 
 
 
表 Y04 2
報告內容應包括下列各項： 
一、參加會議經過 
 
  本會議是由日本實驗力學學會於 2001 年發起此國際實驗流體與固體科學技
術研討會議。此會議的目地是推廣與交流相關先進實驗力學技術。主要探討的
領域有： 
 
(I) Fundamentals 
(1) Fluid Engineering 
(2) Multiphase Flow 
(3) Heat and Mass Transfer 
(4) Fluid Instrumentation 
(5) Flow Visualization and Image Processing 
(6) Transport Phenomena on Material Processing 
(7) Materials Testing and Evaluation 
(8) Non-destructive Testing and Inspection 
(9) Optical Methods and Image Processing Techniques in Solid Mechanics 
(10) Thermal Methods and X-ray Techniques, and others 
(II) Applications 
(1) Fluid Machinery 
(2) Fluid Flow in Micro and Nano-scales 
(3) Industrial Applications 
(Automotive, Railway, Electronics, Energy Plants, etc.) 
(4) Transducer and Sensor Design 
(5) Smart Materials and Structural Health Monitoring 
(6) MEMS and Nanotechnology 
(7) Electronic Packaging 
(8) Biomechanics and Clinical Engineering 
(9) Biological Systems and Materials, and so on 
(10) Hostile Environment Applications, and others 
  
表 Y04 4
(3) A4-1 Flow Oscillation Session 
Chairpersons: S. SUDO (Akita Prefectural University) and K.-C. CHANG 張克勤教授
(National Cheng Kung University) 
(4) B7-3 Material Characterization Session 
Chairperson: W-S. LEE 李偉賢教授 (National Cheng Kung University) 
 
在會議中我们發表的主題是”無鉛SAC305及共晶鉛錫合金的高應變率壓縮行為的
研究 (High Strain Rate Compression Behavior for Lead-Free SAC305 & Eutectic 
Sn63Pb37 Alloys)”，論文的英文摘要簡述於下； 
 
ABSTRACT 
  
This paper is emphasized on studying the high strain-rate compression behavior 
of the unleaded Sn-3Ag-0.5Cu (SAC305) solder and the traditional Sn63Pb37 
eutectic solder. The split Hopkinson pressure bar (SHPB) apparatus was used to 
conduct high strain rate tests in order to characterize the associated high rate 
mechanical response of these alloys. Specimens were tested at strain rates ranging 
from 420 to 3,000 s-1. A total of approximately more then 35 tests were performed 
in order to obtain the dynamical stress-strain relationship for the SAC305 alloys. 
The tested samples experienced a large amount of elasto-plastic deformation, 
because solder materials are soft and ductile in nature. Upon examining the 
analyzed test data, it reveals that the dynamic yield stress for the SAC305 solder 
alloy is approximately 95 MPa., when samples were tested at strain rates ranged 
from 450 to 1,250 s-1. Limited strain rate hardening effect was observed in the 
strain rate range specified for both SAC305 and Sn63Pb37 alloys. In addition, the 
quasi-static compression tests of the SAC305 samples were also conducted. It is 
reported that the quasi-static compression yielding stress is significantly lower 
than the above reported high strain rate dynamic yield stress for SAC305 solder.  
 
Key words 
High strain rate response, lead-free SAC solder, Eutectic Sn63Pb37 solder, SHPB 
testing, dynamic material behavior  
 
 
