 
 
 
波浪通過複合式浪形潛堤布拉格反射之研究(2/2) 
 
中文摘要 
本文主要是利用斷面水槽，在波浪未碎波條件下進行水工模型試驗，探討規
則波通過複合式浪形潛堤，在相對堤高及相對堤寬改變下其反射率之變化。所
謂複合式浪形潛堤其堤頂形狀是由三組總長度相同、但不同個數之沙漣疊加再
與矩形潛堤組成複合式浪形潛堤，期望利用此種設計能同時發揮潛堤與沙漣的
作用。本文改變不同的相對堤寬、堤高，並與前人研究邊界元素法(BEM)數值計
算之結果與水工模型試驗結果比較。總體而言，兩者反射率變化趨勢非常吻合
有其一定性。 
 
關鍵詞：水工模型、布拉格反射、複合式浪形潛堤 
 
 
 
Bragg Reflection of Water Waves by a Multiply Composite 
Wavy-type Breakwater 
ABSTRACT 
The reflection problems of normal incident waves in a constant water depth 
caused by a multiply composite submerged breakwater were investigated 
experimentally. In the case of the top of a multiply composite submerged breakwater 
consisting of the superimposition of three sinusoids having different wave number 
and same bed relative amplitudes. The experiments were conducted in the water wave 
facilities of the Department of Harbor and River Engineering of the National Taiwan 
Ocean University. Throughout the experiments, the water is kept at a constant depth 
of 0.5m.Five capacitance wave gauges were used for recording all necessary wave 
profiles Reflection coefficient is evaluated by means of Goda’ s（ 1976）
incident-reflection wave separation method. The reflection coefficient is obtained 
from experiments were found to be in reasonable agreements with numerical analysis 
for non-breaking waves. 
 
Key words：Hydraulic Model Bragg Reflection Multiply Composite Submerged Breakwater
二、水工模型試驗 
2.1 實驗設備與儀器 
本文水工模型試驗係在國立台灣海洋大學河
海工程學系河工一館地下室「水動力實驗室
( since1999 )」（HydroDynamics Laboratory , HDL）
內之斷面造波水槽中進行，該水槽總長 28m、寬
0.8m、高 0.8m，水槽底部為經過混凝土水準化處理
所舖設而成，水槽兩側鑲嵌透明強化玻璃可供實驗
觀測之用。 
造波裝置為加拿大國家水利研究所 DAVIS 所
製，長 1.32m、寬 1.16m 屬於活塞式造波機，造波
機可造規則波與不規則波，其造波週期在 0.81sec
∼1.85sec 之間，本文採規則波試驗，試驗水深固定
為 0.5m。 
波高資料擷取設備包含容量式波高計、波高增
幅器及波高資料擷取電腦軟體系統。 
2.2 模型製作與佈置 
複合式浪形潛堤首先是由三組相同長度( B = 
50 cm )及漣高( a = 5 cm )但個數不同( m = 4 , 8 , 12 )
之沙漣疊加成複合式沙漣，疊加後其最高頂點約為
12.5 cm。再將其前後以等高不透水木板支撐固定做
為潛堤高度，即可組合成複合式浪形潛堤，如照片
1 所示。 
 
照片 1 複合式浪形潛堤示意圖 
 
組合後複合式浪形潛堤其模型尺寸大小為：單
一潛堤長 B = 50cm 最大堤頂高 12.5cm，其材料為
2mm 厚不鏽鋼依事先設計圖製作，共有 4 片總長合
計 4 B = 200cm，因此可以模擬波浪通過複合式浪
形潛堤個數( m = 1∼4 )改變時之反射率及透過
率，如照片 2 所示。 
 
照片 2 複合式浪形潛堤側視圖（m = 4） 
 
考慮到水槽長度對模型試驗量測之影響，本文
複合式浪形潛堤個數( m )共 4 組，潛堤設置高度在
波浪未碎波下，其無因次相對堤高有兩組( d/h = 
0.6、0.7 )，其造波波高分別為 H = 4 cm 及 2 cm。
複合式浪形潛堤擺放在斷面造波水槽內。其中第一
支波高計( No.1 )距離造波板約 7.0 m 處，主要是量
測入射波高用；第二支至第四支波高計( No.2∼
No.4 )為量測反射率，其間距分別為 0.2 m 及 0.25 
m，第四支波高計距離潛堤前方 0.4 m；而第五支波
高計位於潛堤後方 1.5 m 處用以量測透過率。如圖
3 所示。 
圖 3 水動力實驗室造波機及量測系統配置圖 
0.0 1.0 2.0 3.0 4.0 5.0kh
0.0
0.2
0.4
0.6
0.8
1.0
|R|
    Experiment datas (2006)
    Numerical model (2006)
d
h
L 4B
 
(d) m=4 
圖 5 複合式浪形潛堤|R|與 kh 關係圖(d/h=0.6) 
 
圖 6 為增加相對堤高(d/h)為 0.7，此時複合式
浪形潛堤最高頂點已達 0.95h，非常接近水面，因
此反射率值明顯大幅提升。 
數值計算結果顯示：在 m=1 時，最大反射率
值 0.7 發生在 kh=0.509，而第二尖峰值為 0.652 發
生在 kh=1.906；在 m=2 時，最大反射率值 0.873 發
生在 kh=1.806；在 m=3 時，最大反射率值 0.959 發
生在 kh=1.757；在 m=4 時，最大反射率值 0.987 發
生在 kh=1.747。因此由數值計算結果分析發現，當
潛堤相對堤寬(B/h)變大及潛堤個數增加，在淺水長
波處容易出現反射率尖峰值，而最大反射率值發生
位置與潛堤個數(m)有關，即潛堤個數增為 4 個，
則在第 4 個尖峰處即為最大反射率值 
0.0 1.0 2.0 3.0 4.0 5.0kh
0.0
0.2
0.4
0.6
0.8
1.0
|R|
    Experiment datas (2006)
    Numerical model (2006)
d
h
L B
 
(a) m=1 
由數值計算結果明顯看出：隨著複合式浪形潛
堤個數增加，出現反射率尖峰值個數亦增加，尖峰
值發生位置有往 kh 較小處移動；相對堤高增加，
此種現象依然存在，而且反射率會變大。在圖 6(d)
中，kh 在 1.0 至 2.5 間，反射率值最大可達 0.987，
幾乎接近於全反射。總體而言，水工模型試驗結果
與數值計算作比較，趨勢上有一致性，模型試驗反
射率結果與數值解接近而且比較理想。 
 
0.0 1.0 2.0 3.0 4.0 5.0kh
0.0
0.2
0.4
0.6
0.8
1.0
|R|
    Experiment datas (2006)
    Numerical model (2006)
d
h
L 2B
 
(b) m=2 
0.0 1.0 2.0 3.0 4.0 5.0kh
0.0
0.2
0.4
0.6
0.8
1.0
|R|
    Experiment datas (2006)
    Numerical model (2006)
d
h
L 3B
 
(c) m=3 
0.0 1.0 2.0 3.0 4.0 5.0kh
0.0
0.2
0.4
0.6
0.8
1.0
|R|
    Experiment datas (2006)
    Numerical model (2006)
d
h
L 4B
 
(d) m=4 
圖 6 複合式浪形潛堤|R|與 kh 關係圖(d/h=0.7) 
 
