 2 
 
行政院國家科學委員會專題研究計畫成果報告 
由GE、Vestas、Enercon 風機分別建構之離岸式風場之連網研究 
The study on grid connection of offshore wind farm set up by GE, Vestas and Enercon 
wind turbine generator respectively 
 
計畫編號：NSC98 -2221 -E - 027- 108  
執行期限：98 年 8 月至 99 年 7 月 
主 持 人：李清吟 東南科技大學電機工程系 
E-mail: cylee@mail.tnu.edu.tw 
 
摘要 
本計畫探討西元 2011 年台灣電力公司離峰系統彰化離
岸風場，假定第一期開發容量為 108MW，比較分析型態 B 
(Vestas)與型態 C (GE)兩款風機建置之風場對系統之衝
擊，本計畫採用 PSS/E 29 版當模擬工具，並依據「併聯技
術要點修訂條文」之規範，探討風場併入後系統的電壓變
動幅度、暫態穩定度以及系統故障造成風場解聯之範圍。
最後，探討電力系統加入靜態虛功補償器 (Static Var 
Compensator, SVC)與靜態同步補償器 (Static Synchronous 
Compensator, STATCOM)之改善效果。結果顯示，由於型態 C 
(GE)風機可調控虛功率，所以系統有外在因素擾動時，型態
C (GE)之風場可以減緩擾動之影響幅度，相較型態 B (Vestas)
風機啟動時需吸收虛功率以維持運轉，故對系統幫助不大。
另外，本計畫模擬之改善設備中又以靜態同步補償器效果較
佳。 
 
關鍵詞：電壓變動、暫態穩定度、靜態虛功補償器、靜態同
步補償器 
 
Abstract 
The project aims at Taipower in 2011, assuming a capacity of 
108MW for Changhua Offshore Wind Farm in its first phase of 
development, the project analyzes and compares the impacts on 
the Taiwan power system of the wind farm in two scenarios: 
using type B ( Vestas) and type C (GE), and in accordance with
「Parallel Techniques amendments」. The project further adopts 
PSS/E software (Version 29) to simulate voltage spread, transient 
stability, and the impacts of system fault on wind farm, and the 
scope of wind farm cut out. Finally, potential improvements 
achieved by adding SVC (Static Var Compensator) and 
STATCOM (Static Synchronous Compensator) to Taiwan power 
system are also explored. Simulation results further suggest that 
wind farm building by type C can reduce the spread of output 
factor because wind turbine (Type C) can control reactive power. 
Oppositely, wind turbine (Type B) need some reactive power for 
starting. Addressing the issue, the project has simulated various 
improvement strategies of which STACOM appears to the best 
choice. 
 
Keywords: Voltage Spread, Transient Stability, Static Var 
Compensator, Static Synchronous Compensator 
 
I. 前言 
在陸上設置風場藉此取代傳統發電機組的方式，
會因為土地有限、取得不易與陸岸上的風不穩定等條件
限制下，促使風場開始往離岸的形式尋求發展。離岸式
的風場將比較不會有上述的各種限制，而且其風的品質
要比陸上來的穩定許多，這可以使風機發出來的電能更
為穩定，在各國都希望提高再生能源發電占比的同時，
穩定的電力品質也是一併需要考慮的課題。 
彰化外海適合興建大型離岸風場，而本計畫假定
第一期建設風場容量為 108MW，採用型態 B (Vestas)
與型態 C (GE)風力機組探討，模擬台電公司西元 2011
年離峰系統，討論台灣電力系統連結不同款風力機組
之建置風場，分析併入系統前後之差異性。 
 
II. 模擬系統介紹 
(i) 模擬台電系統介紹 
彰化外海離岸風場的裝置容量本模擬假定為
108MW，風場的併接點位置假設在線西 H(5801)，其附
近之系統架構如圖 1 所示，本計畫以 Vestas 與 GE 風力
機組建置之風場作為探討，模擬併入台灣電力公司西元
2011 年離峰系統為研究對象，離峰系統之總發電量為
17987.9MW，而總負載量為 17860.5MW。文中所提及
之匯流排電壓等級分別以 XX E(XXXX)代表 345kV 匯
流排，XX H(XXXX)代表 161kV 匯流排，XX D(XXXX)
代表 23.9kV 匯流排，英文字母後方為匯流排之編號。
[1] 
 
 
圖 1  彰濱轄區之電力系統架構圖 
 
(ii) 模擬風機介紹 
 3 
 
 
圖 4  風場與台電系統之連結架構圖 
 
III. 離岸風場併入台電系統之穩態分析 
(i) 電力系統之電壓變動探討 
本節探討離岸風場併入台灣電力公司西元 2011 年
系統；其中離岸風場併入離峰系統，模擬風場在額定且
固定風速下運轉於滿載發電，探討離岸風場併入後台電
系統之穩態電壓變動。模擬結果須滿足下列台灣電力公
司相關規範條例[4][5]： 
「台電公司輸電系統」         中華民國 97 年 6月 2日修訂 
第五條  系統電壓限制範圍正常時系統電壓應保持 0.95pu 
到 1.03pu 之間 
「台電公司再生能源發電系統併聯技術要點」   
中華民國 98 年 12 月 31 日發布 
第七條  第二款   電壓變動率 
    發電設備併接於台電公司系統造成責任分界點電壓 
變動率，加計同一變電所或同一變壓器以核准併網
電源之影響，不含系統背景值應維持高低各百分之
二點五以內。 
 
(ii) 離岸風場併入系統前後之電壓變動 
本計畫離岸風場所採用之雙饋式感應風機其運轉
時可選擇於電壓控制與功率因數控制模式兩種運轉方
式。選擇電壓控制模式運轉時，設定目標電壓值控制風
機輸出端電壓值，風機將依據系統之狀態進而調整虛功
率量輸出或吸收來達到目標電壓值；選擇功率因數控制
時，設定風機欲運轉之功率因數目標，其設定目標範圍
為功率因數超前 0.9 至落後 0.9 之間。若風機於功率因
數落後之狀況，此時為過激磁運轉須往系統輸出虛功
率；若風機於功率因數超前之狀況，此時為欠激磁運轉
須往系統吸收虛功率。 
模擬結果如表 4 顯示 GE 建置之風場採落後 0.90
併入時，離峰系統下電壓變動率-0.59%，此外，採超前
0.90 併入時，離峰系統下電壓變動率 1.18%，為本次模
擬電壓變動率最小與最大之界線。另外，採電壓運轉模
式時，其控制操作範圍可依使用者自行設定，在此為能
滿足規範條例則以電壓範圍 0.95 pu 至 1.03 pu 之間，測
試結果觀看併接點線西 H(5801)之電壓值、風場併入系
統前後電壓變動率，還有單台風機的虛功率輸出情形，
且模擬結果必須滿足「台電公司輸電系統規劃準則」與
「台電公司再生能源發電系統併聯技術要點」上述條列
規範。 
 
 
表 4  風場(GE)併入台電公司離峰系統之電壓變動 
項目 併接點線西 電壓(pu) 
電壓變動率 
(%) 
單台風機之虛 
功率(MVAr) 
原始系統 0.9989   
功 
率 
因 
數 
控 
制 
落後 0.90 0.9930 -0.59 +1.7 
落後 0.95 0.9968 -0.21 +1.2 
1.00 1.0032 0.43 0 
超前 0.95 1.0085 0.96 -1.2 
超前 0.90 1.0107 1.18 -1.7 
電 
壓 
控 
制 
0.95 pu 0.9999 0.10 -1.6 
1.00 pu 1.0045 0.56 +2.08 
1.03 pu 1.0073 0.84 +2.08 
註：單台風機之虛功率中〝+〞為風機向系統輸出虛功率，〝-〞為風
機向系統吸取虛功率。其中虛功率為最高+2.08MVAr 到最低
-1.7MVAr。 
 
IV. 離岸風場併入台電系統之動態分析 
(i) 離岸風場切離之動態行為 
本節探討離岸風場併入台灣電力公司西元 2011 年
系統；其中離岸風場併入離峰系統，模擬風場在額定且
固定風速下運轉於滿載發電，探討全數風機停機時之動
態行為。假設風場採功率因數控制 1.0 運轉模式下，考
慮風場內部所有風機於模擬時間 1 秒全數停機，每台風
機原本是滿載輸出 GE 為 3.6 MW，而 Vestas 為 1.8 
MW，虛功率與轉子角度因模擬時間開始後一秒鐘將風
機停機故其值為 0 MVAr 與 0 度。風場主輸電線之實功
率傳輸情況，於模擬時間 1 秒風機全數停機故風場無實
功率輸出到系統上，系統也無虛功率流進風場。 
圖 5 為併接點線西 H(5801)之電壓響應，1 秒之前
屬穩態時間，而 GE 建置之風場併接點起始電壓高於
Vestas 建置之風場併接點。1 秒時發生故障，因為 GE
有調節虛功率之功能，所以故障瞬間並不像 Vestas 會有
瞬間電壓突升之現象，此狀況過後兩者曲線幾乎一模一
樣，可參考表 5 資料整理，兩者差距僅 0.0001，但一切
皆符合台電公司相關規範準則。 
 
 
圖 5  離峰系統併接點線西 H(5801)之電壓響應 
 
 
 
 
 
 
 5 
 
平衡三相短路故障，詳細故障案例如表 9 所示，模擬彰
化離岸風場彰濱轄區內彰濱 H(2301)以及鄰近中港轄區
中港 H(2151)超高壓系統發生三相短路故障，其三相短
路故障之臨界清除時間為 12 週波，探討併接點之頻率
與電壓響應情形，與 Vestas 建置之風場相互比較，模
擬分析將依照下列相關規範條例進行評估[4]： 
「台電公司輸電系統規劃準則」   中華民國 97 年 6 月 2 日修訂 
第二十五條  161kV 系統暫態穩定度 
第三款  考慮一回線發生三相短路故障，而非故障 
   端以 7週波清除，故障端之臨界清除時間 
   在 12 週波以上。 
 
表 9  台電系統於 161kV 發生三相短路故障之模擬分析 
事故 
編號 故障點 故障清除時間 故障模擬始末時間 
Case 3 中港 H(2151) 12 週波 
1.0 秒故障開始 
1.2 秒故障結束 
Case 4 彰濱 H(2301) 12 週波 
1.0 秒故障開始 
1.2 秒故障結束 
 
圖 8 為模擬 Case3 併接點線西 H(5801)之電壓響應
，模擬時間開始 0 秒至 1 秒鐘為穩態模擬時間，於 1
秒鐘發生故障平衡三相短路，故障發生之時離峰電壓降
至最低 0.8230pu，然後於 1.2 秒(故障清除時間 0.2 秒)
開始回穩，詳細結果可參考表 10，結果顯示發生故障
時風機皆會做相應調節使系統回穩，故障點線西
H(5801)之電壓受擾動之情況未觸及風機之保護電驛啟
動，且故障清除之後，電壓皆有回穩之現象。 
 
 
圖 8  Case3 併接點線西 H(5801)之電壓響應 
 
表 10   Case3 併接點線西 H(5801)之電壓響應資料 
電壓資料 
風機機型 
初始值 
(pu) 
末端值 
(pu) 
最低值 
(pu) 
最高值 
(pu) 
Vestas 1.0025 1.0008 0.8230 1.0393 
GE 1.0032 1.0022 0.8276 1.0366 
 
圖 9 為模擬 Caes4 併接點線西 H(5801)之電壓響應
，當發生故障平衡三相短路，故障發生之離峰電壓降至
最低 0.0 pu，然後於 1.2 秒(故障清除時間 0.2 秒)開始回
穩，詳細結果可參考表 11，故障清除後系統開始回穩
，然而，因為電壓驟降過低(V<0.15 pu)，所以保護電驛
啟動使風場切離。雖然風場切離造成二次傷害，但最後
電壓與頻率還是可以回到平穩，並未造成所有系統崩潰
。 
 
 
圖 9  Case4 併接點線西 H(5801)之電壓響應 
 
表 11   Case4 併接點線西 H(5801)之電壓響應資料 
電壓資料 
風機機型 
初始值 
(pu) 
末端值 
(pu) 
最低值 
(pu) 
最高值 
(pu) 
Vestas 1.0025 1.0036 0 1.0423 
GE 1.0032 1.0036 0 1.0427 
 
(iii) 離岸風場之臨界跳脫範圍 
本節探討離岸風場併入台灣電力公司西元 2011年
系統；其中離岸風場併入離峰系統，模擬風場在額定且
固定風速下運轉於滿載發電，探討故障發生時造成風場
與系統切離之臨界範圍。此模擬為針對風力機組之低電
壓安渡能力進行探討，其為避免系統電壓過低而風場仍
未被切離的情況發生，此時可能造成風機損毀甚至人員
損傷的危險，故針對故障距離風場多遠時，會造成風場
與系統切離加以模擬分析整理，供日後台電公司作為電
力調度之參考。本模擬目標是依照風場併接點開始，從
併接點向外模擬不同電壓層級和不同匯流排之三相短
路故障會導致風場切離的範圍，比較分析兩款風機建置
之風場範圍之差異。風力機組設置保護電驛依據「併聯
技術要點修訂條文」之規範制定，其中頻率與電壓在過
高與過低時，忍受秒數更為短暫。 
當離峰系統 345kV 及 161kV 匯流排發生平衡三相
短路故障紀錄是否造成風場與系統解聯，整理出臨界跳
脫範圍，離峰系統下 GE 建置之風場其臨界跳脫範圍為
中火南 E(540)、彰濱 E(2300)與全興 E(2350)，而 Vestas
建置之風場其臨界跳脫範圍為中火南 E(540)、彰濱
E(2300)、全興 E(2350)與中寮南 E(2490)，如圖 10 所示
。在離峰系統 161kV 匯流排，無論由 GE 建置或 Vestas
建置之風場其臨界跳脫範圍皆為線西 H(5801)、彰濱
H(2301)與草港 H(5819)。如圖 11 所示。 
 
 7 
 
 
圖 14  離峰系統併接點線西 H(5801)之頻率響應 
 
表 13  離峰系統風速變動下併接點頻率(Hz)整理 
 
初始值 
(Hz) 
末端值 
(Hz) 
最低值 
(Hz) 
最高值 
(Hz) 
原始未補償 60 60.0001 59.9965 60.0029 
加入 SVC 60 60.0002 59.9966 60.0028 
加入 
STATCOM 60 60.0003 59.9967 60.0028 
 
V. 結論 
本計畫探討風力機組 GE 風機可調控運轉模式提
供或吸收系統之虛功率，而 Vestas 啟動時必須從系統吸
收虛功率，所以故障期間時 GE 可以提供虛功率給系
統，減緩故障之衝擊。 
電壓變動方面，GE 建置之風場併入離峰系統若採
功因控制落後 0.90 與超前 0.90 時，電壓變動率分別為
-0.59%與 1.18%。另外，採電壓控制模式時，控制電壓
在 0.95 pu 與 1.03 pu 時，其電壓變動率分別為 0.1%與
0.84%，模擬結果滿足「台電公司輸電系統規劃準則」
與「台電公司再生能源發電系統併聯技術要點」條列規
範。 
風機全數停機模擬分析之結果，由於 Vestas 之風
機需吸收虛功率以維持運轉，GE 之風機則採用功因運
轉模式 1.0，無吸收或釋出虛功率，所以穩態狀況下線
西之電壓以 Vestas 建置之風場較 GE 之風場低。然而，
在全數風機停機時，Vestas 之風機無需吸收虛功率，故
系統上多了虛功率使得線西之電壓瞬間突升，但附近機
組會調節虛功率以維持系統之平衡，所以 Vestas 與 GE
之風場停機後，除了 Vestas 之風場造成線西電壓有突升
之狀況，其餘曲線幾乎一模一樣。 
暫態穩定度方面，故障發生時風機會調節虛功率，
協助降低故障對系統之傷害，且 GE 之風機可調整輸出
虛功率，相對於 Vestas 之風機只能停止吸收系統虛功率
藉以降低故障造成之影響，所以 GE 之風場對於故障發
生時較能使線西之電壓與頻率擾動幅度降低。 
當離峰系統 345kV 及 161kV 匯流排發生平衡三相
短路故障紀錄是否造成風場與系統解聯，整理出臨界跳
脫範圍，離峰系統下 GE 建置之風場其臨界跳脫範圍為
中火南 E(540)、彰濱 E(2300)與全興 E(2350)，而 Vestas
建置之風場其臨界跳脫範圍為中火南 E(540)、彰濱
E(2300)、全興 E(2350)與中寮南 E(2490)，如圖 10 所示。
在離峰系統 161kV 匯流排，無論由 GE 建置或 Vestas
建置之風場其臨界跳脫範圍皆為線西 H(5801)、彰濱
H(2301)與草港 H(5819)。 
另外，加入容量 100MVAr 之 SVC 與 STATCOM
到線西匯流排上，有助於系統穩定，因其可調控虛功率
減緩系統受外在因素帶來之擾動，而且調控虛功率對於
電壓將有明顯之改善，其中使用 STATCOM 比 SVC 之
效果更好，對於頻率則兩者相差無幾。 
 
VI. 參考文獻 
[1]  楊任軒，離岸風場併入輸電系統之研究，碩士論文，國 
立臺北科技大學電機研究所，台北，2009。 
[2]  莊東華，離岸風場併入不同併接點之系統衝擊研究，碩 
士論文，國立臺北科技大學電機研究所，台北，2009。 
[3]  鄭諭嶸，DFIG 架構離岸風場併入輸電系統之研究，碩 
士論文，國立臺北科技大學電機研究所，台北，2009。 
[4]  台灣電力公司，台電公司輸電系統規劃準則，2008 年。 
[5]  台灣電力公司，台電公司再生能源發電系統併聯技術要 
點，2009 年。 
 
 
二、與會心得 
在參加這次的會議過程中，筆者結識了相當多的專家學者，也討論有關
IEC61850 系統的理論架構與實際發展在電力系統的經驗，對於日後的研究相信
會有相當的助益。最後要感謝國科會在來回機票與註冊費的經費補助。 
三、攜回資料 
主要攜回會議論文集光碟，可供相關研究人員參考。 
 2
generator tripping (DGT) is performed to decrease the bulk STN 
power flow. Fortunately, a large-scale power plant which comprises 
fossil and liquid natural gas (LNG) units is available near the 
transmission corridor. The fossil units are the base load generator. 
However, the LNG units are shown as the combined-cycle 
generator and are the mid-load and peak-load generators. With the 
fast start-up feature of the LNG units, the proposed approach is to 
trip these generator units directly to decrease the high STN power 
maintain system stability. Figure 2 shows a diagram of the XD 
power plant. In order to obtain the target of stable operation 
continuously, this study presents SPS implementation for the 
isolated power system. At the beginning, it is necessary to simulate 
power system that attempt to catch the weak points of the grid. The 
simulation results are then applied to build a look-up table 
describing the relationship between STN power flow and the 
number of gas/steam turbine (GT/ST) to be tripped. The look-up 
table enables rapid and accurate decision making by operators. 
When the STN power flow reaches the predefined limit on the look-
up table (e.g., 3000 MW), the central dispatch control center 
(CDCC) alerts the operators of the XD power plant, who then 
prepare to turn on the GT/ST tripping switch as Figure 3 shows. 
When the STN transmission lines encounter N-3 contingency, as the 
fault clears (5.5 cycles after fault), the relay sends a signal to trip 
GT/ST units. The tripping numbers of GT/ST units depend on the 
STN power flow shown in the look-up table. The GT/ST units 
tripping scenario and the power system simulation are described in 
the following paragraphs. 
 
 
Fig. 2. GT/ST units tripping scenario diagram 
 
 
 
Fig. 3. Generators tripping control panel of the first stage SPS 
 
II.  GT/ST UNITS TRIPPING SCENARIO 
A.  Introduction to the objective power plant 
This objective XD power plant is included two groups 
of generator units. The XDNG is a fossil unit and the other is 
a combined-cycle (C.C.) unit fueled by liquid natural gas 
(LNG) as Figure 2 shows. It provides about one eighth of the 
total power generated by this isolated power system. The 
total installation capacity of the XD power plant is 4123 MW, 
including XDNG 4 fossil units (1988 MW) and XDSG 5 sets 
combined-cycle units (2135 MW). The fossil units are base 
load generators; however, the C.C. units belong to medium 
and peak load generators. Each C.C. set generator contains 
three gas turbines (GTx3, 90MW x3) units and one steam 
turbine (ST, 157MW) unit.  Because of their much shorter 
start-up time, only the control of C.C. units by DGT is 
discussed here. 
B. Extreme Contingency 
Figure 2 shows that each LQNE and LQSE substation 
includes three northern-forward circuits and two southern-
forward circuits, respectively. The two previous major 
blackout events revealed that these two substations are highly 
vulnerable. The planning criterion of 345 kV transmission 
system for this power system is double contingency outage 
(N-2). However, N-3 contingency, which is excess the 
design criteria is consider here. For reliability reasons, an 
SPS should be built for keeping stable operations in case of 
severe N-3 contingencies. Normally, the electricity generated 
from the southern region should flow to the north which is 
the demand area. In the case of N-3 contingency faulted at 
LQNE substation, the power flow is initially forced to flow 
south rather than north because of the electricity path. The 
power flow travels about 200 km before returning to LQNE 
substation and finally flowing north. Long distance 
transmission of huge amounts of power can cause transient 
instability.  
 
 
Fig. 4. The logic of rejecting GT 
 
Therefore, the STN power flow must be monitored 
based on LQNE / LQSE substations. If three of the six STN 
lines trip (N-3 contingency), after the faulted circuits have 
been cleared, the distance relay of the faulted circuits send 
 4
 
Fig. 5  stable case in STN = 3700MW 
 
 
 
Fig. 6  unstable case in STN = 3800MW 
 
 
 
Fig. 7 stable case in STN = 3800MW with tripping 2 generators 
 
As Figure 5 shows, the power system is stable when 
STN power flow is equal to or less than 3700 MW. However, 
it becomes unstable when the STN power flow reaches 3800 
MW, as Figure 6 illustrates. After tripping two generators, 
the system recovers transient stability, as Figure 7 shows. 
The purpose of the tripping generator is to achieve 
transient stability. The lost/tripping generation can cause an 
imbalance between supply and demand of the electrical 
power. Therefore, the frequency problem is induced. 
However, the under-frequency load shedding (UFLS) 
scheme and the automatic generation control (AGC) function 
and the fast spinning reserve units drag the system frequency 
to another equilibrium. The last paragraph of the system 
simulation (D. Frequency stability) examines whether the 
proposed DGT method can trigger the UFLS scheme. 
 
B. Small Signal Stability 
In order to ensure other stability problems, the small 
signal stability and voltage stability must be checked. The 
procedure is described in this and the next paragraph. 
Installing the power system stabilizer (PSS) is an effective 
and economic way to improve system damping 
characteristics. The frequency domain method is used to 
simulate small signal stability (SSS). The simulation software 
for small signal stability (SSS) is EPRI PEALS. Meanwhile, 
two system situations which is the normal and N-3 
contingency are compared. Table 3 shows the simulation 
results. As the STN power flow increases, however, the 
damping ratio decreases in normal or in N-3 contingency 
situations. This indicates that the greater the inter-area power 
flow, the greater the weakness. 
 
Table 3 SSS comparison for normal and N-3 conditions 
STN 
Power 
Flow
(MW)
Normal N-3 Contingency 
Damped 
Frequency
(Hz) 
Damping 
ratio 
(%) 
Damped 
Frequency 
(Hz) 
Damping 
ratio 
(%) 
3800 1.2005 5.01 1.2043 3.75 
3900 1.2012 5.00 1.2053 3.60 
4000 1.2003 4.84 1.2063 3.40
4100 1.2004 4.68 1.2072 3.20 
4200 1.1998 4.41 1.2071 3.06 
4300 1.1985 4.30 1.2076 2.97 
4400 1.1984 4.28 1.2082 2.92 
 
The damping ratio range is 4.28 % to 5.01 % and 
2.92 % to 3.75 % for normal and N-3 contingency situation, 
respectively. The damping ratio values are valid according to 
the planning criteria for the Taiwan Power Company 
transmission system [13]. Table 3 shows that, for both 
conditions, the oscillation frequencies are approximately 1.2 
Hz. These simulation results show that the oscillation mode 
is inter-area mode. The STN power flow quantity and 
damping ratio reveal an inverse linear relationship, which is 
consistent with the SSS theorem. The SSS simulation results 
range does not violate relative regulations, which imply that 
SSS is not the main constraint for this isolated power system. 
 
C. Voltage Stability 
Large power flows with long distance transmission 
often result in voltage problems. Therefore, the relationship 
between the increasing STN power flow and voltage stability 
is examined. The EPRI VSTAB software is used for 
simulations. The simulation procedure is to decrease the 
northern area generation and increase the same quantity 
generation in the south by 100 MW for each step to transfer 
more STN power flow. The simulated bus voltage of LQNE 
substation has the lowest value after screening all 345 kV 
buses in the base case. Figure 8 shows the P-V curve of 
LQNE substation. Both the normal and N-3 contingency 
 6
effectiveness, the proposed SPS scheme can improve the 
reliability of the power system because the UFLS does not 
act even in the scenario in which the maximum number of 
GT/ST must be tripped. 
Major Blackouts in recent years have forced 
government authorities and power companies worldwide to 
reexamine the security of their power systems. In order to 
prevent or reduce blackout events, countermeasures such as 
SPS and RAS (Remedial Action Scheme) are taken. 
Similarly, this study illustrates how a simple, effective and 
economic SPS scheme can prevent blackout in an isolated 
and intensive power system. The proposed SPS scheme can 
provide a reference for similar isolated power systems to 
prevent blackout events. 
 
V.  ACKNOWLEDGMENT 
The authors deeply appreciate the supports and advices 
from Department of System Operation, Taiwan Power 
Company. 
VI.  REFERENCES 
[1] “ Causes of the 2003 Major Grid Blackouts in North America and 
Europe, and recommended Means to Improve System Dynamic 
Performance,”  Administrative Committee of the IEEE Power System 
Dynamic Performance Committee, IEEE Trans. On Power Systems, Vol. 
20, No. 4, Nov. 2005. 
[2] Final Report on the disturbances of 4 November 2006, 
http://www.ucte.org/publications/otherreports/ 
[3] C. H. Lee and S. C. Hsieh, “Lessons learned from the power outages on 
29 July and 21 September 1999 in Taiwan,” IEE Proc.-Generation, 
Transm. and Distrib., vol. 149, No. 5, Sept. 2002, pp. 543-549. 
[4] P. Pourbeik, Prabha S. Kundur, Carson W. Taylor, “The Anatomy of a 
Power Grid Blackout,” IEEE power & energy, Vol. 4, No. 5, Sep./Oct. 
2006, pp.22-29. 
[5] P. Pourbeik, Prabha S. Kundur, Carson W. Taylor, “The Anatomy of a 
Power Grid Blackout,” IEEE power & energy, Vol. 4, No. 5, Sep./Oct. 
2006, pp.22-29. 
[6] Moshref, A.; Henville, C.; Curtis, R.; Morison, K.; Albassam, L.; 
Owayedh, M.; El Said, O.; Ashiq, M., “Design of a special protection 
system to maintain system security at high import,” Power Engineering 
Society General Meeting, 2003, IEEE Volume 1, 13-17 July 2003 
Page(s). 
[7] C. H. Lee and S. C. Hsieh, “Lessons learned from the power outages on 
29 July and 21 September 1999 in Taiwan,” IEE Proc.-Generation, 
Transm. and Distrib., vol. 149, No. 5, Sept. 2002, pp. 543-549. 
[8] T. Y. Hsiao, C. N. Lu, Y. H. Liu, “Defense plan design in a longitudinal 
power system,”  PSCC 2002, in Sevilla, Session 25, Paper 5 
[9] T. Y. Hsiao, C. N. Lu, Y. H. Liu, C.L. Cheng, B. S. Chang “Safety net 
design and implementation in Taiwan power system,” IEE Power 
System Management and Control, 17-19 April 2002. 
[10] CIGRE Task Force 38.02.19 (Convener: D. Karlsson), “System 
Protection Schemes in Power Networks”, 2001. 
[11] P. Pourbeik, Prabha S. Kundur, Carson W. Taylor, “The Anatomy of a 
Power Grid Blackout,” IEEE power & energy, Vol. 4, No. 5, Sep./Oct. 
2006, pp.22-29. 
[12] Lei Wang, Kip Morison, “Implementation of Online Security 
Assessment,” IEEE power & energy, Vol. 4, No. 5, Sep./Oct. 2006, 
pp.46-59. 
[13] S. S. Ahmed, N. C. Sarkeret, A. B. Khairuddin, M. R. B. A. Ghani, and 
H. Ahmad, “A Scheme for Controlled Islanding to Prevent Subsequent 
Blackout, ” IEEE Trans. on power systems, Vol. 18, No. 1, Feb 2003, pp. 
136-143. 
VII.  BIOGRAPHIES 
 Chao-Rong Chen was born in Taiwan in 1961. He received his B.S., M.S., 
and Ph.D. degrees in Electrical Engineering from National Taiwan 
University in 1983, 1988, and 1991, respectively.  In August of 1991, he 
joined National Taipei University of Technology as a faculty member, now 
he is presently an associate professor in the Electrical Engineering 
Department.  From 1995 to 1996, he was a visiting scholar at the University 
of Washington, Seattle. At present, his research interests include power 
system stability, intelligent control, and energy saving. 
Wen-Ta Tsai was born in Taiwan in 1968. He received his diploma in 
electrical engineering from National Taipei Institute of Technology, Taipei, 
Taiwan, his MBA degree in electricity utility deregulation from National 
Chiao-Tung University, Hsinchu, Taiwan, he started to pursue his Ph.D. 
degree in National Taipei University of Technology in 1989, 1999 and 2003, 
respectively. Since 1990, he has been an electrical engineer at system 
operation department, Taiwan Power Company. His research interests include 
power system stability, large disturbance, special protection system, and 
blackout restoration. 
Ching-Yin Lee was born in 1957. He received his B.S.E.E. degree from 
National Taiwan Institute of Technology in 1983, M.S.E.E. degree from 
National Taiwan University in 1986 and Ph.D. from National Taiwan 
University of Science and Technology in 1992. Dr. Lee worked with 
Northern Taiwan Telecommunication from 1979 to 1986. He was an 
instructor from 1986 to 1991 and an associate professor from 1991 to 
1998 in the Department of Electrical Engineering, National Taipei 
University of Technology, and since 1998, he has been a professor in the 
same department. He was the chairperson of the E.E. department from 
1992 to 1995, a visiting scholar at the University of Taxes at Arlington 
from 1996 to 1997, the dean of extension education office, the dean of 
college of continuing and the head of secretary office from 1997 to 2001. 
Now, he is vice president at National Taipei University of Technology. His 
research interests are in power system operation, particularly in voltage 
stability analysis, reactive power planning, contingency analysis, power 
quality and electrical machinery. 
 
Generally, system operators use the peak value of loads or 
installed capacity as consideration when reconfiguration of the 
feeder is needed. When the peak load is considered, fewer 
switch combinations are available for reconfiguration. 
Although these methods provide satisfactory solutions for the 
distribution system operators, they may not be adequate for 
other situations. For example, mixing of commercial loads 
with residential loads in urban area in Taiwan is quite 
common in most of large cities. Also, a special type of load, 
the night markets, may be located in residential or commercial 
areas [9].Thus, in order to provide a suitable switching 
strategy with real power system operation, the load variation 
should be taken into consideration.  
As mentioned in Sec 1, the important point of planned 
maintenance outage is to provide the maintain crew enough 
time for maintenance task. During this period of time, the 
impact to the customers should be kept in a minimum while 
the feeders should maintain enough capacity when the 
emergency operation is needed during the maintenance 
period.  
In the past research [2-4], loads are considered as 
constants. Consider a three-feeder, eight-switch system, 28 
different switch combinations exist (including non-radial 
combinations). When the load variation is considered, the 
possible combinations will be 28*96=2688. The solution 
space will be extended from a two-dimensional space, 
switch/load to a three-dimensional space, 
switch/load/period. Because feeder reconfiguration is a 
combinatorial optimization problem, soft computing 
methods are commonly used in the past.  GA (Genetic 
Algorithm), ACO (Ant Colony Optimization), SA 
(Simulated Anneal) or PSO (Particle Swarm Optimization) 
have been used. Since the complexity of the problem has 
been extended, the existing methods have difficulty to find 
the suitable solution within a reasonable time.    
This paper tries to combine the mutation operator of GA 
and ACO by maintaining the solution space within two 
dimensions. The proposed method searches for load/switch 
solution space using GA mutation operator first for each time 
slot. The elite strategy is applied during the GA search such 
that the best switch combination can be preserved.  ACO is 
then applied based on the solutions found in the first stage to 
identify the optimal solution by considering the time 
dimension so the solution with maximum continuous time slot 
and minimum customer impact can be identified.  
III.  METHODOLOGY 
When multi-period load variation is considered, search of a 
suitable switch plan for feeder reconfiguration is a three-dimension 
combinatorial optimization problem.  In order to simplify the 
search space, this paper reduces the search space using a 
two-part approach. First, GA mutation operator is applied that 
searches all switch combinations satisfying operating 
constraints in the solution space. Secondly, through the use of 
ACO search mechanism, the best switch combination can be 
identified based on some operation criteria. The two-stage 
approach is described as following: 
 
A. Stage 1: Identify all switch combinations for each time slot 
In this stage, the task is to identify all possible switch 
combinations that satisfy the operation constraints within a 
time slot. Thus, it is possible that more than one switch 
combination may exist for each time slot that satisfies the 
operation constraints. The modified GA mutation operation 
with elite mechanism is applied in this stage in order to 
identify all possible switch combinations. The procedure of 
this part is described as followings: 
Step 1) Performing load forecast for the necessary period of 
time slots in advance so the necessary information is 
available for the optimization procedure. The 
configuration of the system is also known in 
advanced since the maintenance schedule is based on 
the existing system operation condition.  
Step 2) The first step is to produce an initial population. The 
binary representation is used to encode the 
distribution system into chromosome. Each gene in a 
chromosome represents the status of a switch in the 
distribution system. Each chromosome is checked to 
ensure that the configuration represented by the 
chromosome is valid. 
Step 3) Due to the radial structure constraint, the probability 
of producing invalid chromosome during the GA 
crossover operation is relative high. The mutation 
operator in GA is used in this paper in order to 
accelerate the search task.  
Step 4) Since the goal of this stage is trying to identify 
possible configurations that satisfy all constraints, 
elite mechanism is applied to ensure that the best 
solution found during the search process can be kept 
in the population.  If a new generated chromosome 
is better than the worst chromosome in the current 
population, the worst chromosome will be replaced. 
At the end of the evolution, the population will 
maintain the feeder configurations during the search 
process. A fitness function that calculates the load 
balancing index as shown in Eq. (1) is used. 
 
1 1,
k k
m n
m n n m
Cap Capβ
= = ≠
= −∑ ∑  ....................... (1) 
 where k is the number of feeders, and Capn is the 
installed load of feeder n. 
B. Stage 2: Identify the Optimal schedule 
At this stage, the task is to identify the optimal schedule 
from the switch combinations of every time slot searched 
during stage 1. Based on the minimizing the switching 
operation and balancing index, this stage tries to identify the 
most suitable switch combinations for a maximum continuous 
time slot while maintaining the minimum balancing index. 
ACO is used in this stage. The graph representation of the 
search space using ACO is shown in Fig. 1. The search 
procedure is described as followings:  
Table I 
 LOADS AT DIFFERENT TIME SLOT 
 
F1-F3 Ampacity : 200 
 Z2 Z3 Z4 Z5 Z6 Z7 Z8 Z9
T1 25 30 10 40 20 10 50 30 
T2 32 22 16 35 15 29 26 29 
T3 28 25 10 35 15 35 33 15 
T4 20 25 30 15 30 20 15 22 
T5 40 19 10 36 10 35 43 11 
T6 15 25 25 21 25 35 15 49 
T7 33 30 22 39 40 12 49 35 
T8 19 35 10 39 30 26 25 29 
T9 15 39 12 37 24 20 25 31 
 
Suppose conductor in Z1 is under maintenance, S1 is 
opened to de-energize the conductor. During the first stage, 
the mutation operator of GA is applied to identify all possible 
switch combinations that satisfy the operation constraints.  
Since SW1 is opened, Z1 is out of service due to the 
maintenance.  The problem is to provide the service to Z2 
and Z3 through neighboring feeders. From the results of GA, 
the available switch combinations at different time slot are 
shown in Table II.  For example, during time slot T1, two 
switches can be selected as a tie switch. The chromosomes 
that represent these two switches are (00001000) and 
(00000010) respectively.  
 
Table II 
 Tie switches obtained from stage 1) for different time slot 
 
Time Slot Switch Combinations Obtained from GA 
T1 S5(00001000),S7(00000010) 
T2 S5(00001000),S8(00000001) 
T3 S5(00001000),S7(00000100) 
T4 S4(00010000),S5(00000100),S8(00000001) 
T5 S5(00001000),S7(00000010) 
T6 S5(00001000),S7(00000010) 
T7 S5(00001000),S8(00000001) 
T8 S4(00010000),S5(00001000),S8(00000001) 
T9 S5(00001000) 
 
During the first stage, switch combinations in these 9 
time slots are identified. Form Table II, it is known that for 
each time slot, switch S1 and a tie switch selections from a 
time slot will form a valid distribution system. In the 
second stage, ACO is applied to identify the optimal switch 
plan during the time slots.  The ACO search tree that 
represents the problem is shown in Fig. 3. In this paper, the 
consideration is to find the maximum available continuous 
time slot with minimum switch actions and minimum load 
balancing index.  The results obtained from ACO are 