  
2 
 
 
 
快的收斂速度，並且能夠獲得精確的崩潰點，進而可以
利用電壓崩潰點的結果，進一步做其他相關的分析。 
本產學合作計劃，擬自行開發本土第一代電壓穩定
度監控系統。學界將負責(1)電壓穩定度分析工具建置，
(2)即時電壓穩定度系統建置。業界將協助(1)監控系統資
料庫建置與規劃，(2)線上量測方法。有別於歐、美大廠
及研究機構所研發之電壓穩定度分析工具，尤其對於大
型再生能源併網之不穩定性，兼具分析與監控之功能。
在應用領域第一階段以輸電線上之電壓穩定度監控為
主，第二階段再切入配電系統與 SCADA 及配電器具之
自動化結合，增加產品之附加價值，市場潛力無窮。 
III.文獻探討 
A. 電壓穩定度偵測與緊急控制技術 
   文獻上 PMU 基礎之電壓穩定度偵測與緊急控制技
術，大致可分為兩類:  
(1)基於局部量測信號，而量測點之間無資訊交換或有少
數資訊交換:  大部分方法之理論基礎為一電壓源與一
負載之戴維尼等效電路。因為各匯流排資料可獨立檢
驗，本方法可容忍 SCADA 信號之時間差，並不需考量
時間之同步化，但是因模型過度化簡，結果較不準確。  
(2)考量電壓不穩定之全區可觀性：此為廣域量測之最重
要優點。但是量測信號需考慮時間同步，以維持模型之
精準性。  
   第一種方式因使用戴維尼等效電路，較適用於連結
線介面(ti-line inferface)之電壓穩定度分析。但負載裕度
之估測準確度較低；而第二種方法需有完整之電力系統
即時模型，需與 EMS 系統相結合，複雜度較高，但負
載裕度之估測較準確。亦可以進行前瞻性與偶發事故排
序與篩選，並可進行預防控制。故本計畫將以第二種方
式進行。  
   現有以第二種方式之電壓穩定度分析工具，包含離
線式之(1)ABB Voltage Security Assessment (ABB-VSA), 
(2)PSS/E  Ver. 30 (Siemens), (3)VSAT (Powertech  
Labs), (4) VSTAB (EPRI), (5) NEPLAN-Voltage Stability   
(BCP Busarello+Cott+Partner Inc, Switzeland), (6)  
WPSTAB   (National Technological University of Athens, 
Greece)。即時式工具包含 (1) ABB’ s PSGuard), (2) 
Online-Application of  DSA  Tools,  (3)  EPRI  CAR  
Project,  (4) QuickStab  (Energy  Consulting  
International,  Inc),  (5) ASTRE(University of Liege)等
等。雖然有些成果，但有下列缺失:  
(1) 很多現有之工具以電力潮流解之存在與否，計算穩
定度邊界。此方式會對電壓穩定度指標，有過高估測之
風險。因為實際上 Saddle-Node 分歧點、Hopf分歧點、
或暫態穩定度極限等因素，會較潮流解發散先行發生。  
(2) 部分電壓崩潰機制會發生於整區或較多之匯流排。
少數匯流排之 P-V/Q-V 圖形，會造成觀念上之誤判。
傳統上如某依匯流排之電壓下降較快，此觀念無法完整
同時勾勒所有參與電壓崩潰之匯流排。  
(3) 現有工具均僅考慮傳統之同步發電機。對於再生能
源使用之感應機組，無法完全代表。再者因大型風電系
統之不確定性，電壓崩潰之機制要重新檢示。  
B. 常用風力發電感應發電機模型 
  常用於風力發電之感應發電機模型，整理如下: 
(1) J. A. P. Lopes等(1991)提出PX Bus 模型，利用一併
聯的等效電抗，來近似感應發電機等效模型，其優
點為模型簡單而易於與潮流方程式結合[1]。 
(2) D. R. Vega等(2002)考慮大系統併入感應馬達為負
載，然後比較三種電力系統潮流解法所求得的工作
點，對電力系統動態所造成的影響，可以發現如果
將感應馬達數學模型，同時併入潮流方程式疊代求
解而得到的工作點，其對應的電力系統動態，則較
接近實際感應馬達動態特性 [2]。 
(3) S. G. Wang(2007) 同時考慮風渦輪機與感應發電機
中的滑差變數，在併入系統潮流方程式疊代求解，
而以詳細的模型來分析電力系統併入感應發電機
時，其對於電力系統最大傳輸量之影響[3]。 
(4) A. Feijoo(2009)提出一個新型的PQ模型，利用等效
的π型電路來近似定速型感應發電機之數學模型，
其優點為只要輸入機械功率，就可以經由潮流計算
而得到感應發電機輸出功率[4]。 
(5) S. H. Li等(2010) 提出感應發電機等效ZIP模型，利
用轉子堵轉短路電抗與轉子開路電抗，來近似感應
發電機等效模型[5]。 
 
IV研究方法 
• 電壓穩定度演算法之理論探討 
電力系統動態模型是由一組非線性微分方程式與
代數方程式所組成，可以表示成下式: 
x=f(x,y,u, )
0=g(x,y,u, )
λ
λ
&
               (1) 
其中
my(y )∈  是代數方程式變數，如匯流排電壓與相
角，
nx(x )∈  是系統狀態變數， pu(u )∈  是輸入控制
變數，如自動電壓調整參考電壓值， ( )λ λ ∈ l 是不可
控之系統參數，如輸入之風速。如果 =1l ，則 λ為一個
數量，用以估側風力發電系統邊限發電條件，
mg(g )∈ 
是包含功率潮流方式的代數方程式，
nf(f )∈  為系統微
分方程式。 
評估電力系統電壓穩定度，通常會利用(1)靜態連續
功率潮流(Static Continuation Power Flow, SCPF)、(2)動態
連續功率潮流 (Dynamic Continuation Power Flow, 
DCPF)、(3)半靜態時域模擬(Quasi-Static Time-Domain 
Simulations, QSTDS) 與 (4) 時 域 模 擬 (Time-Domain 
Simulations, TDS)等方式來評估穩定度。各方法簡述如
下: 
(1)靜態連續功率潮流考慮了一個標準的潮流模型，這個
模型中包含了固定的 PV 或含有虛功限制的 PQ 發電
機，以及靜態 PQ 或與電壓有關的負載，從靜態連續功
率潮流方法所得到的穩定度資訊，基本上與系統的最大
邊限負載情況有關。 
(2)動態連續功率潮流考慮電力系統中發電機、負載與控
制器的動態模型，並計算出隨著注入風能增加的系統工
作點，而使用動態連續功率潮流同樣的也可以找出系統
最大發電邊限情況，所以使用動態連續功率潮流就如同
使用靜態連續功率潮流再加入動態分歧方法。由於動態
連續功率潮流使用完整的系統微分代數方程式，所以分
析上會比靜態連續功率潮流來得精確。 
(3)半靜態時域模擬與動態連續功率潮流類似，但是半靜
態時域模擬則是在變化緩慢的風速下做時域模擬，所以
  
4 
 
 
 
A.  PX 模型 
i i iS P Q
i iV 
jX
IMiP
 
圖 1 PX模型等效電路 
 
PX 模型將感應發電機等效成一併聯的感抗 X，因
此在潮流方程式中，感應發電機輸出的實功率 Pi等於輸
入的機械功率 PIMi，而輸出的虛功率 Qi則隨著感應發電
機輸出電壓變化。PX 模型的等效電路如圖 1 所示，由
於等效電路圖十分簡單，因此易於與潮流方程式結合。 
因此併入潮流方程式之通式為: 
2
0
0
IMi Li i j ij ij ij ij
j i
i
Li i j ij ij ij ij
j i
P P V V ( G cos B sin )
V Q V V ( G sin B cos )
X
δ δ
δ δ
∈
∈
= − − +
= − − − −
∑
∑
 
          (2) 
B.  失速(stall)模型 
失速模型除了如同前面三種模型推導出感應發電
機等效電路系統數學方程式之外，並且加入感應發電機
轉子滑差，做為系統數學方程式其中的變數，再詳細地
考慮完整的感應發電機數學模型。 
 
圖 2 失速模型等效電路 
 
感應發電機在超同步速度時，才會發電運行，此時
吸收輸入的機械功率而發出實功率，同時吸收虛功率來
建立磁場所需要的激磁電流。感應發電機等效電路與功
率傳弟關係圖如圖 2 所示，機械功率 Pmi 對應轉子側可
變電阻
1rR ( s )
s
−
，其中，
s s
R jX+ 為定子阻抗，
r r
R jX+
為轉子阻抗，Xm是激磁電抗，s為滑差。 
從定子側將電路進行化簡，可以得到感應發電機等
效電路，如圖 3所示。 
 
圖 3 失速模型定子側等效電路 
 
其中 
2 2 2 2
2 2 2 2
r
e e e m r
r r
m m r r m m
r r
m r m r
R
Z R jX jX // j( X )
s
R R
X X X X X X ( )
s sj
R R( ) ( X X ) ( ) ( X X )
s s
= + = +
+ +
= +
+ + + +
 
    (3) 
從圖 12可以得到感應發電機輸出實功率 Pi與虛功率 Qi: 
2 2
2 2 2 2
*
i i
i i i i i
s e s e
s e i s e i
s e s e s e s e
V
S P jQ V ( R R ) j( X X )
( R R )V ( X X )Vj( R R ) ( X X ) ( R R ) ( X X )
θθ  ∠= + = − ∠  
+ + + 
+ +
= − −
+ + + + + +
  
   (4) 
接著從轉子側進行戴維寧等效，得到感應機等效電
路，如圖 4所示。其中戴維寧等效阻抗為 
 
圖 4 失速模型轉子側戴維寧等效電路 
 
1 1 1
2 2 2 2
2 2 2 2
m s s
m s m s s m m s
s m s s m s
Z R jX jX //( R jX )
X R X X X X X Rj
R ( X X ) R ( X X )
= + = +
+ +
= +
+ + + +
  
         (5) 
戴維寧等效電壓為: 
 
2 2
2
2 2
i i
T T m
s s m
i m
T
s s m
V
V jX
R j( X X )
V X
V
R ( X X )
θθ ∠∠ =
+ +
==> =
+ +
      (6) 
 
從圖 4的等效電路可以得到感應發電機轉子側功率表示
式: 
 
2
2
1
2 2
1 1
1 1
1
* *
ri mi ri ri ri r ri ri r
r
r
r
( s ) ( s )
P P V I I R I I R
s s
V ( s )
R
R s( R ) ( X X )
s
− −
= = = =
−
=
+ + +
 
          (7) 
同時，利用實功率與虛功率跟滑差的關係式，可
以繪製滑差與輸出實虛功之關係圖，如圖 5 與圖 6 所
示。從圖 5可以得知，感應發電機只有在微小滑差變化
範圍內，才能合理地輸出實功率，若超過範圍，則感應
發電機會失速，而此時所吸收的虛功率則維持定值。 
由於失速模型推導之數學方程式過於複雜，若要與
電力系統結合而併入潮流方式解電力系統潮流，其中
Jacobain 矩陣較難計算，因此這裡提出的一個新的想法
來簡化系統方程式，以利於計算潮流 Jacobain矩陣。 
這裡將原先失速模型等效為 pi型等效電路，然後依據能
量守恆原則，將等效電路分成外部匯流排(external bus)
與內部匯流排(internal bus)兩部分，來分析失速模型系統
方程式，如圖 7所示。 
根據外部匯流排功率平衡方程式，可以得到下列關
係式: 
 
  
6 
 
 
 
1 1 1 2 2 2 3 m
2 3 1 3 1 2
a 2 3 b 1 3 c 1 2
1 2 3
Z =R +jX  Z =R +jX  Z =jX
Z Z Z Z Z Z
Z =Z +Z +   Z =Z +Z +   Z =Z +Z +
Z Z Z
       
(20) 
假設輸入的機械功率 Pm，則等效 pi型電路可以等效成一 
電流源等效電路，如圖 10所示。其中電流源 Im1可以表
示為: 
m
m1 *
2
P
I =
V
                  (21) 
而等效的電流源 Im1與阻抗 Za可以等效成戴維寧等
效電源 Vm與阻抗 Za而形成一電壓源等效電路，如圖 10
所示，其中等效電源 Vm可以表示成: 
m1I mV
c
Z
c
Z
bZ bZ
a
Z
a
Z
 
圖 10電流源等效電路與戴維寧等效電路 
a c
Z +Z
S=P+jQMAQS
bZ
 
圖 11 風渦輪機功率潮流等效模型 
 
m
m a *
2
P
V =Z
V
              (22) 
若將圖 10之戴維寧等效電路進ㄧ步等效，則可以
得到以電流源 Im2與等效諾頓電阻 Za+Zc表示的等效諾頓
電路，其中等效電流源 Im2可以表示成: 
a m
m2 *
a c 2
Z P
I =
Z +Z V
              (23) 
從等效的諾頓電路可以得到ㄧ等效之風力渦輪機
功率潮流模型，如圖 11 所示，其中 S 為等效風能輸入
之複數功率，而 SMAQ為輸出之電網端之複數功率，而可
以表示成下列等式: 
* *a1
1 m2 m
2 a c
2*
MAQ MAQ 1 MAQ MAQ
ZV
S=V I = ( ) P         
V Z +Z
S =S-Y V =P +jQ
     (24) 
其中 MAQ
b a c
1 1Y = +
Z Z +Z
，而 V1與 V2的關係式可以表示
成下式: 
MAQ * 1
2 1 c
1 b
S V
V =V -Z (-( ) - )
V Z
         (25) 
所以只要計算出風能擷取的機械功率 Pm，做為輸入資
料，便可以利用計算潮流的方式得到 P、Q、V1、PMAQ、
QMAQ。 
由於 PQ 模型推導之數學方程式過於複雜，若要與
電力系統結合而併入潮流方式解電力系統潮流，其中
Jacobain 矩陣較難計算，因此這裡提出的一個新的想法
來簡化系統方程式，以利於計算潮流 Jacobain矩陣。 
這裡將原先 PQ模型的等效 pi型等效電路，依據能量守
恆原則，將等效電路分成外部匯流排(external bus)與內
部匯流排(internal bus)兩部分，來分析 PQ模型系統方程
式，如圖 12所示。 
根據外部匯流排功率平衡方程式，可以得到下列關
係式: 
 
圖 12 PQ模型內部匯流排與外部匯流排系統圖 
 
外部匯流排:  
2 2
1 1i xi
i xi C C b i i
C C b
VV V V
P jQ
Z Z Z
θ θ θ θ θ∠ − + − ∠ − ∠ = +    (26) 
同樣地，根據內部匯流排功率平衡方程式，可以得到下
列關係式: 
內部匯流排: 
2 2
xi i xi xi
C i xi C a xi xi
C C a
V VV V
P jQ Pmi
Z Z Z
θ θ θ θ θ∠ − ∠ − + + ∠ = + =  (27) 
其中 Vi與 Vxi分別為感應電機輸出電壓與內部電壓，θi
與 θxi為其對應的電壓相角，Pi與 Pxi分別為感應電機輸
出實功率與內部實功率，Qi與 Qxi為其對應的虛功率，
Pmi為輸入的機械功率。 
為了與潮流方程式結合，相關方程式必須整理成下式: 
外部匯流排: 
2 2
1 1i xi
i xi C C b i
C C b
VV V V
cos( ) cos cos P
Z Z Z
θ θ θ θ θ− + − − =  (28) 
2 2
1 1i xi
i xi C C b i
C C b
VV V V
sin( ) sin sin Q
Z Z Z
θ θ θ θ θ− + − − = (29) 
內部匯流排: 
2 2
xi i xi xi
C i xi C a xi
C C a
V VV V
cos cos( ) cos P Pmi
Z Z Z
θ θ θ θ θ− − + + = =   
    (30) 
2 2
0xi i xi xiC i xi C a xi
C C a
V V V V
sin sin( ) sin Q
Z Z Z
θ θ θ θ θ− − + + = =      
(31) 
因此併入潮流方程式之通式為: 
外部匯流排: 
0
0
i Li i j ij ij ij ij
j i
i Li i j ij ij ij ij
j i
P P V V ( G cos B sin )
Q Q V V ( G sin B cos )
δ δ
δ δ
∈
∈
= − − +
= − − −
∑
∑
  (32) 
內部匯流排: 
  
8 
 
 
 
之電壓穩定度情形，同時也利用套裝軟體 VSA 來完成
台電系統電壓穩定度分析。 
A. 開發之 VSA程式 
本計畫開發程式VSA人機操作介面圖如圖 15所示。 
VSA程式主要功能是以連續潮流法，來分析大型電力系
統之電壓穩定度。VSA主要功能有以下幾種: 
1.解電力系統潮流。 
2.連續潮流法求電壓穩定裕度:在預測器上可以選擇二
次(quadratic)預測、三次(cubic)預測與四次(quartic)預測。 
3.負載模型:可以選擇四種感應馬達模型，分別為 Lisa1、
Lisa2、Han與 Nelson等這四種做為分析模型。 
4.靈敏度分析。 
5.N-1事故自動排序之電壓穩定度分析:自動排序所研究
之系統，其各種跳線情況，進而分析各種事故之電壓穩
定裕度。 
 
圖 15 開發之靜態電壓穩定度評估工具 
 
B. 四種感應發電機之電壓穩定度研究 
圖 16 以一個簡單單部感應發電機連接一無限大匯
流排為例，來近似四種感應發電機模型連接到大型電網 
 
1 0°∠ P+jQ
m
P
 
圖 16 單部感應發電機連接無限大匯流排 
 
情形。本團隊已完成四種感應發電機模型之潮流程式，
在不同的輸入機械功率 Pm，求得所對應之 P、Q、V1，
表一為不同的輸入機械功率 Pm，四種模型所對應的 P、
Q、V1之潮流解。 
從前面所推導四種模型中實功 P 與虛功 Q 的關係
式。可以發現感應發電機輸出之實功 P與虛功 Q之間是
相依關係，因此假定感應發電機輸出端電壓 V1=1∠0°，
再利用關係式繪製出如圖 17之 PQ關係圖。從圖可以發
現其輸出的實功越大，則吸收的虛功也隨之越多。 
-1 -0.5 0 0.5 1
0.4
0.6
0.8
1
1.2
Real Power
R
ea
ct
iv
e 
Po
w
er
Motor Generator
ZIP 模模
PQ 模模
stall 模模
 
圖 17 四種感應發電機模型之 PQ關係圖 
 
接著研究感應發電機連接大型電網時，電力系統電
壓穩定度情形，這裡給定一個負載度參數λ (Loading 
Parameter)做為連續潮流法中，負載變化的參數。因此
針對四種感應機模型連接無限大匯流排系統，其電壓穩
定度λ-V圖如圖 18所示。 
從圖 19可以發現 PX模型的負載裕度過大，並不適
合做為分析之模型，而失速模型與 PQ 模型結果十分接
近，而從結果來看 ZIP 模型的結果最為保守，較適合做
為分析之模型。 
表一 四種感應發電機模型潮流解 
 PQ模型 PX 模型 
Pm P Q V1 P Q V1 
0.6 0.5948 -0.1063 0.9592 0.6 -0.3379 0.9692 
0.7 0.6928 -0.1467 0.9553 0.7 -0.3381 0.9695 
0.8 0.7903 -0.1954 0.9504 0.8 -0.3382 0.9697 
0.9 0.8874 -0.2538 0.9443 0.9 -0.3383 0.9698 
1 0.9839 -0.3244 0.9367 1.0 -0.3383 0.9697 
 ZIP 模型 失速 模型 
Pm P Q V1 P Q V1 
0.6 0.6 -0.4330 0.9588 0.5941 -0.4298 0.9592 
0.7 0.7 -0.4732 0.9547 0.6921 -0.4676 0.9553 
0.8 0.8 -0.5221 0.9494 0.7897 -0.5130 0.9504 
0.9 0.9 -0.5817 0.9427 0.8868 -0.5674 0.9443 
1 1.0 -0.6552 0.9340 0.9833 -0.6329 0.9367 
-2 0 2 4 6 8 10 12 14 16 180.5
0.55
0.6
0.65
0.7
0.75
0.8
0.85
0.9
0.95
1
V
1 
(p.
u
.
)
λ
PX model
ZIP model stall model
PQ model
 
圖 18 四種感應發電機模型 λ-V curve 
  
10 
 
 
 
 
圖 23  Base Case監測界面 P-P曲線 
 
圖 24  Base Case監測界面 Q-Q曲線 
 
圖 25  Base Case監測界面 Q-P曲線
 
圖 26  Base Case監測界面 P-Q曲線 
 
以上的分析結果可知： 
1.台灣電網的電壓穩定度良好。考慮的事故雖有八個N-1
事故未達準則的 5%穩定度裕度，此些事故待北部發電
廠全面完工後均可解決。 
2. VSA採用工業界普遍接受的薄弱區域定義─電壓崩潰
點 Jacobian矩陣的右特徵向量中的最大值對應匯流排。
從分析結果來看，北區為微弱區域，而匯流排 4302 為
電壓穩定的最微弱匯流排。 
3.具有最大靈敏度的匯流排表示當負載有很小的擾動
時，這些匯流排的電壓裕度有最大的波動，而這些匯流
排也是在系統發生電壓崩潰的微弱匯流排。這些匯流排
在崩潰點的電壓值構成臨界的匯流排電壓，在整個運作
的過程中，這些匯流排的實際值和他們相對於負載裕度
的靈敏度可得知離電壓崩潰還有多遠。正確識別電壓的
微弱區和臨界的電壓值依賴於負載變化的方式，所以負
載模型、發電的調度、系統的非線性因素都影響著識別
電壓的結果。 
4. 電壓崩潰現象被認為具有某種靜態穩定的性質，也就
是當系統故障後而不存在潮流解意味著電壓崩潰。而
VSA 的靜態分析可以很高的準確度計算系統離電壓崩
潰點的負載裕度，這可以在計算精度與速度上取得很好
的平衡。 
表三  Base Case的前 30個微弱節點及靈敏度資訊 
Sensitivities Ranked by Real Power Injection 
Rank Bus 
Id 
Company Sensitivity Load/Gen Voltage 
P 
MW/MW 
Q 
MW/MVAR 
P.U KV 
1 3,953  
東部 
1.2752  1.2660  LOAD 0.6787  16.220  
2 3,942  
南部 
0.0431  0.1410  LOAD 0.9292  64.120  
3 5,788  
中部 
0.0166  0.0478  LOAD 0.9859  23.560  
4 8,507  
南部 
0.0162  0.0524  LOAD 0.9665  155.610  
5 8,503  
南部 
0.0162  0.0524  LOAD 0.9670  155.690  
6 8,501  
南部 
0.0152  0.0508  LOAD 0.9807  157.890  
7 3,442  
中部 
0.0147  0.0213  LOAD 0.9940  68.590  
8 3,482  
中部 
0.0135  0.0370  LOAD 0.9863  68.060  
9 8,307  
中部 
0.0134  0.0211  LOAD 0.9898  159.350  
10 8,313  
中部 
0.0134  0.0211  LOAD 0.9898  159.350  
11 8,339  
中部 
0.0134  0.0211  LOAD 0.9902  159.420  
12 8,311  
中部 
0.0134  0.0211  LOAD 0.9902  159.420  
13 8,306  
中部 
0.0134  0.0211  LOAD 0.9898  159.350  
14 8,309  
中部 
0.0134  0.0211  LOAD 0.9902  159.420  
15 8,333  
中部 
0.0134  0.0211  LOAD 0.9898  159.350  
16 8,315  
中部 
0.0134  0.0211  LOAD 0.9901  159.410  
17 8,312  
中部 
0.0133  0.0211  LOAD 0.9902  159.430  
18 8,335  
中部 
0.0133  0.0211  LOAD 0.9901  159.410  
19 8,308  
中部 
0.0133  0.0211  LOAD 0.9898  159.350  
20 8,304  
中部 
0.0133  0.0211  LOAD 0.9897  159.350  
21 3,413  
中部 
0.0131  0.0159  LOAD 0.9937  23.750  
22 8,320  
中部 
0.0127  0.0207  LOAD 0.9908  159.520  
23 8,329  
中部 
0.0127  0.0207  LOAD 0.9908  159.510  
24 8,332  
中部 
0.0127  0.0207  LOAD 0.9907  159.510  
25 8,331  
中部 
0.0127  0.0207  LOAD 0.9908  159.510  
26 8,220  
北部 
0.0127  0.0252  LOAD 0.9853  158.640  
27 8,249  
北部 
0.0126  0.0252  LOAD 0.9851  158.610  
28 8,301  
中部 
0.0124  0.0161  LOAD 0.9886  159.160  
29 3,432  
中部 
0.0124  0.0135  LOAD 0.9939  68.580  
30 8,495  
南部 
0.0123  0.0449  LOAD 0.9845  158.500  
 
圖 27 台電系統監測介面潮流示意圖 
 
無研發成果推廣資料 
權利金 0 0 100% 千元  
碩士生 0 0 100%  
博士生 0 0 100%  
博士後研究員 0 0 100%  
參與計畫人力 
（外國籍） 
專任助理 0 0 100% 
人次 
 
其他成果 
(無法以量化表達之成
果如辦理學術活動、獲
得獎項、重要國際合
作、研究成果國際影響
力及其他協助產業技
術發展之具體效益事
項等，請以文字敘述填
列。) 
本產學合作計劃，自行開發本土第一代電壓穩定度監控系統。學界將負責(1)風
力發電感應發電機模型建置，針對四種定速型風力發電感應發電機模型，分別
為 PQ 模型、PX 模型、ZIP 模型與失速模型，進行深入研究，並以內部與外部
匯流排之新概念，重新整理感應發電機數學模型，使模型易於與潮流方程式結
合，進而分析不同模型對於併網後之電壓穩定度情形。(2)即時電壓穩定度系統
建置。業界將協助(1)監控系統資料庫建置與規劃，(2)線上量測方法。有別於
歐、美大廠及研究機構所研發之電壓穩定度分析工具，尤其對於大型再生能源
併網之不穩定性，兼具分析與監控之功能。在應用領域第一階段以輸電線上之
電壓穩定度監控為主，第二階段再切入配電系統與 SCADA 及配電器具之自動化
結合，增加產品之附加價值，市場潛力無窮。 
 成果項目 量化 名稱或內容性質簡述 
測驗工具(含質性與量性) 0  
課程/模組 0  
電腦及網路系統或工具 0  
教材 0  
舉辦之活動/競賽 0  
研討會/工作坊 0  
電子報、網站 0  
科 
教 
處 
計 
畫 
加 
填 
項 
目 計畫成果推廣之參與（閱聽）人數 0  
