The two-year project, using Matlab computer language 
and PSS/E power system simulation software, analyzes 
and simulates Taipower peak, middle-peak and off-peak 
systems to develop rapid response strategies for 
avoiding the occurrence of large-scale power 
contingency and reducing the loss of power outages 
when nuclear or large-scale thermal plants trip or 
the 345 kV South-to-Central or Central to North 
transmission lines experience outage.  
During the first year, the project focuses on regions 
with excessive electricity to develop an optimal 
strategy and decision-making method for generator 
tripping for maintaining power system stability. The 
location and number of generator tripping are leading 
factors in need of consideration, and this requires 
further examination of system small signal stability, 
transient stability, and voltage stability after the 
tripping. 
The second year of the project switches the focus to 
regions experiencing power shortage to propose an 
optimal load shedding strategy. The action rate and 
load shedding ratio of each underfrequency protection 
relay needs to be optimized in order to prevent the 
scope of blackout from expanding. The setting is 
highly complicated due to the large number of 
protection relays, and each relay is usually updated 
once a year. Therefore, an effective intelligent 
control method for obtaining the best setting for the 
coming year is urgently needed. 
英文關鍵詞： Smart Grid, Special Protection System (SPS), Small 
Signal Stability (SSS), Transient Stability, Voltage 
Stability (VS), Under-frequency Load Shedding (UFLS).
 
I 
 
 
目錄 
 
摘要  ------------------------------------------------------------------------------  II 
Abstract  -------------------------------------------------------------------------  III 
一、前言  ------------------------------------------------------------------------  1 
二、研究目的  ------------------------------------------------------------------  4 
三、文獻探討  ------------------------------------------------------------------  5 
四、研究方法  ------------------------------------------------------------------  7 
五、結果與討論  --------------------------------------------------------------  17 
六、結論與建議  --------------------------------------------------------------  24 
參考文獻  -----------------------------------------------------------------------  26 
  
III 
 
Abstract 
 
In recent years, more and more governments have heavily invested in smart grid 
industries, actively integrating information technology to solve power transmission 
problems between the generators and consumers and to establish low-cost, high- 
efficiency, safe and reliable power systems. In terms of power transmission, the 
special protection system plays a crucial role. Due to Taiwan’s long and narrow land 
shape and uneven population distribution, the island’s power system has been 
characterized by regional supply-demand imbalance. The north region whose 
electricity has been in short supply needs to rely on the extra power coming from the 
south region through EHV transmission lines; transmission system security is 
accordingly reduced. Maintaining power system stability is therefore particularly 
important in Taiwan. 
The two-year project, using Matlab computer language and PSS/E power system 
simulation software, analyzes and simulates Taipower peak, middle-peak and 
off-peak systems to develop rapid response strategies for avoiding the occurrence of 
large-scale power contingency and reducing the loss of power outages when nuclear 
or large-scale thermal plants trip or the 345 kV South-to-Central or Central to North 
transmission lines experience outage.  
During the first year, the project focuses on regions with excessive electricity to 
develop an optimal strategy and decision-making method for generator tripping for 
maintaining power system stability. The location and number of generator tripping 
are leading factors in need of consideration, and this requires further examination of 
system small signal stability, transient stability, and voltage stability after the tripping. 
The second year of the project switches the focus to regions experiencing power 
shortage to propose an optimal load shedding strategy. The action rate and load 
shedding ratio of each underfrequency protection relay needs to be optimized in order 
to prevent the scope of blackout from expanding. The setting is highly complicated 
due to the large number of protection relays, and each relay is usually updated once a 
year. Therefore, an effective intelligent control method for obtaining the best setting 
for the coming year is urgently needed.  
Keywords: Smart Grid, Special Protection System (SPS), Small Signal Stability 
(SSS), Transient Stability, Voltage Stability (VS), Under-frequency Load 
Shedding (UFLS). 
2 
 
另一方面，智慧型電網應用於輸電方面，由於連接多個電力系統或眾多發電機組，且保
護電驛種類及數量皆相當多，發電及負載情形又瞬息萬變，不易掌握。因此向來都是調度人
員憑經驗來調度，因而，各種大事故的發生就時有耳聞。 
國外方面，1978年的紐約大停電財物損失高達1.5億美元；1996年的美國西部和加拿大部
份地區大停電，約有250萬人受影響；2003年的美加大停電，則造成100多座電廠停止運轉，
經濟損失高達40至60億美元。以及瑞典的1983年大停電及日本的1987年東京電力大停電事故
等。國內方面，則有台電系統於1999年發生龍崎高壓鐵塔倒塌造成七二九大停電事故，導致
台灣四分之三以上地區停電，損失超過數億美元。因此，當電力系統發生偶發事故時，若保
護與控制設備未能即時有效抑制惡化發生，則電力系統最後將面臨崩潰之命運。 
目前在預防電力系統崩潰發生的方法上，可從經濟性與即時性方面來做選擇： 
(1) 增設電廠以擴充供電容量之裕度，或設置新的輸電線路以提高電力系統可靠度。但在環
境保護和安全的疑慮下，要增設發電設備於鄰近人口稠密度高的都會區和重載地區相形
困難，而輸變電設備由於路權徵收不易及國人對環境景觀和環保意識的日益高漲，通常
無法於預定時程完成。此方式雖可釜底抽薪的解決系統之弱點，但相對施工期限長且花
費經費較高。 
(2) 採用特殊保護系統策略：在電力系統脆弱點的部分，規劃設計一套補強的特殊保護系統。
此系統是設計因應電腦偵測到系統發生異常情況時，立即啟動事先規劃或線上即時計算
之防護動作，例如：發電機跳脫、負載卸載、系統分離等，以維持系統穩定度。如此，
可降低大規模停電事件發生機率及縮短復電時間，此方式施工期限短且花費經費較少，
雖不能真正解決系統問題，只能暫時使系統不受到損壞，是現今全球電力公司最常被採
用且較經濟有效之方法。 
對於特殊保護系統策略之重要方法分述如下： 
(1) 發電機跳脫：藉由部分發電機跳脫解聯來達成有效平衡輸電潮流。發電機組跳脫量及位
置可由電腦決策系統線上計算獲得或經由事先規劃之動作決策表中取得。但無論由何種
方式決定跳脫量及位置，皆須考量時效性及避免過多跳脫量所造成系統區域的電力不平
衡，造成系統穩定度惡化。 
(2) 負載遙控卸載：當系統解聯動作發生後，擁有負載較多之區域，應立即啟動負載卸除動
作。此種負載卸除動作是遙控啟動，有別於低電壓和低頻負載卸載。當系統處於暫態不
穩定情形，負載遙控卸載較低頻卸載及低壓卸載來得及時有效。 
(3) 系統解聯：通常當系統遭受超高壓幹線故障跳脫後，會導致大量電力潮流搖擺及重新分
配的情形發生，而造成系統區域間角度差拉大。為使區間角度差縮小，系統解聯為一有
效方式，其原理是將電力系統事先規劃為數個電力區域，其內部供需大致平衡，當干擾
發生後一旦偵測到某一區與其他區之相角超過一設定值，則會啟動系統分離動作，使該
區與他區分離，此時系統將成為二個獨立電力島相角差也將逐步穩定下來。一般分成二
4 
 
二、研究目的 
在分秒必爭的全球化下，擁有穩定的電力系統，是提升國家競爭力一項利器，同時用戶
已越來越無法忍受重大停電事故。因此，電力系統實應儘速建立一套有效之系統崩潰防禦策
略，俾利在事故發生之時即時反應，以維持電力系統可靠度，使系統遠離電壓崩潰的危機，
並預防類似七二九大停電之事故發生。 
本計畫係應用特殊保護系統觀念建立一套有效之系統崩潰的防禦策略。利用 Matlab 程式
設計與電力系統模擬軟體 PSS/E（Power System Simulator for Engineering），分析與模擬台電
尖、中、離峰系統。提出當核能或大型火力機組跳機、345 kV 南電中送或中電北送輸電幹線
全部跳脫即系統分裂時之快速應變策略，以避免大規模停電事故，減少用戶停電之損失。 
第一年計畫為針對電力過多區域，提出在各種工作點下，不同之發電功率超出量時，最
佳之發電機組跳脫位置與數量之決策方法，以維持電力系統穩定度。而機組跳脫後系統之暫
態穩定度、小訊號穩定度、電壓穩定度及頻率響應皆須一併預先考量，使系統遠離電壓崩潰
的危機以解決系統事故。 
第二年計畫為針對電力不足區域，提出最佳化之負載卸載策略。訂定各低頻電驛最佳化
之動作頻率與卸載率，以避免停電區域擴大。由於電驛之數量眾多，設定相當複雜，因此電
驛通常為一年更新一次，為此，急需藉由智慧型控制之方法，找出針對來年系統最佳化之設
定。 
經由兩年之研究計畫，協助電力調度單位對於重大事故之處理，造成措手不及；且對於
低頻電驛之設定更為精確，使得萬一發生重大事故時，能快速做正確之反應。這不僅是停不
停電問題，同時也是國家電力高科技之展現。 
  
6 
 
Elkateb[18]利用電力系統頻率下降之斜率做為低頻電驛卸載策略，以頻率變化率電驛來偵測
系統頻率變化速度過快的重大事故，可爭取時間在極短時間內卸除負載，則不須等到系統頻
率低於設定頻率以下才開始切除負載就能使頻率回升。Chuvychin [19]利用微電腦數位電驛，
依據頻率與頻率變化率，以自動卸載裝置與備轉容量的相互協調，可以有效避免事故所造成
的系統崩潰。Concordia[20]利用低頻卸載策略，針對小型獨立電力系統作暫態穩定度分析，
當系統發生事故或是發電機組跳機時，進行卸載策略可使系統頻率回復至額定頻率，文中對
基本原理和指導方針皆有詳細的說明。Huang[21]提出負載頻率控制模型來制定包含抽蓄機組
的卸載策略，其卸載策略於尖峰時以發電模式運轉以減低系統的發電成本，而於離峰時以抽
蓄模式運轉以吸收系統剩餘的電力。當在離峰時發生事故時，可將抽蓄機組優先卸除，以恢
復系統的頻率，並可減少用戶中斷電力供應的次數，更可提高系統的可靠度和穩定度。 
關於低頻卸載策略規劃方面，相關參考文獻有： 
Delfino[22]採用的低頻卸載策略有分成傳統、自適應式與半適應式的卸載方案，其分別
使用固定頻率式低頻電驛、頻率變化率電驛與結合固定頻率式低頻電驛和頻率變化率電驛兩
種電驛，此三種皆使用逐次逼近的計算方法，按照各動作頻率切除預先設定的負載。黃漢汶
[23]以類神經網路中的倒傳遞演算法配合L-M學習法應用於電力系統之最小卸載量預測，以發
電量、負載量、頻率下降率及卸載量作為類神經網路的訓練資料，估算出系統在各種不同狀
態下的最小卸載量，以確定預測事故發生時之所需卸載量。Djukanovic [24]提出函數連接型網
路可以準確預測系統頻率變化，進而達到回復頻率的目的。Halevi[25]應用最陡梯度演算法針
對100次典型的發電機跳機事故進而求得每段最小之卸載量。Thompson[26]利用智慧型電驛結
合SCADA系統，針對發電量與負載量共464種情況模擬，以避免過度卸載及發生事故所可能
造成的系統崩潰。在文獻[27]-[28]中以低頻電驛作為卸載策略，其規劃針對下列幾項：最大
過載量、選擇起始卸載頻率、選擇卸載的分段數與卸載量、選擇每階段卸載的延遲時間、分
配各負載優先權以及其他考量，作為其需求和準則。徐國彰[29]中以單機-無限匯流排模型等
效多機系統，藉由搖擺方程式求得頻率變動量及其下降率，並探討不同程度機組跳機
(N-1~N-10)及系統解聯等事故對系統頻率之影響，同時考量台電系統內具有自動發電控制和
緊急發電控制功能的備轉容量，並設計固定頻率式低頻電驛和頻率變化率電驛兩種方法，以
偵測頻率變化量及其下降速率作為判斷系統過載量大小的重要指標，再依據系統擾動的嚴重
程度分別運用固定頻率式低頻電驛或結合頻率變化率電驛卸載，使系統頻率儘速回復至安全
範圍。 
以上文獻少有探討使用最佳化的方式來設計規劃低頻卸載策略，本計畫根據台電尖、中、
離峰系統的實際情況，將單機-無限匯流排取代台電系統，利用智慧型控制，來制定一套符合
台電系統防止頻率驟降的卸載策略，以因應系統的各種突發事故。 
 
8 
 
負載的變動、變壓器分接頭的切換、電抗器及電容器開關操作等。偶而也會遭遇到大的擾動，
例如：超高壓幹線跳脫、大型發電機組跳機、負載驟變及匯流排接地故障等。當電力系統遭
受到諸如此類之大小之擾動時，併聯於電力系統上同步運轉的發電機，因本身所屬激磁機和
調速機特性的差異，其轉速與角度各自依旋轉物體之運動定律，產生不同幅度的變動，並透
過電力系統的聯接而互相牽動，導致擾動影響運轉中的發電機和所有用戶。故為確保電力系
統運轉時不因大小擾動而導致系統嚴重事故，其關鍵即在於各發電機組受到擾動後，是否仍
能繼續維持同步運轉的能力，即所謂相角穩定度的問題。 
(b) 暫態穩定度 
暫態穩定度是指電力系統遭受大干擾，如：超高壓幹線跳脫、大型發電機組跳機、負載
驟變及設備嚴重的短路故障等後，發電機組轉子角度歷經第一個擺動週期後，恢復到原平衡
運轉點或另一平衡點的能力。由暫態穩定度所造成的問題，常使同步機轉子角度產生大偏移，
其恢復的能力端視電力系統的運轉狀況及受干擾的程度而定，電力系統干擾前後的平衡點是
不盡相同。 
(c) 小信號穩定度 
小信號穩定度是指電力系統受到小干擾後維持同步運轉的能力。小干擾源來自於負載、
發電機發電量的變化或是設備開關的切換等。若系統有足夠的同步轉矩及阻尼轉矩，則系統
可維持穩定。不穩定現象有兩種形式，一為同步轉矩不足造成同步機轉子角度的持續增加，
另一為阻尼轉矩不足產生同步機轉子振盪幅度逐漸增大，系統中雖然有正同步轉矩但因缺乏
阻尼轉矩，將產生系統不穩定。 
(d) 電壓穩定度 
電壓穩定度是電力系統在正常操作中或受到干擾後，匯流排電壓維持在可接受範圍的能
力。當電力系統受到干擾，無論是系統負載或是系統的操作狀況改變，所引起電壓無法控制
的大幅滑落，而產生電壓不穩定的主要原因為系統中無效電力供需不平衡所致。分析電壓穩
定度可分為兩大類：大干擾穩定度及小干擾穩定度，大干擾穩定度係指當電力系統遭受到故
障、跳機、網路偶發事故後控制電壓的能力。主要檢討系統在遭受大干擾和控制設備動作後，
所有匯流排電壓須達到可接受的範圍。此決定於負載的特性、連續或不連續的控制與保護相
互關係，如：ULTC、發電機場電流限流器等非線性動態特性，模擬時間可由幾秒至幾分鐘。
小干擾穩定度是小干擾，如：負載變化等系統控制電壓的能力，並檢討負載特性、連續控制
及瞬時的不連續控制等小變化之系統電壓響應。 
 
4.2 基因法則理論概述 
基因法則（Genetic Algorithm, GA）是最佳化問題常使用的方法之一，基本理論是 1975
年由密西根大學 John Holland 教授首先提出，是基於自然界遺傳選擇過程的一種最佳化搜尋
機構，其基本精神在於仿效自然界中「物競天擇」、「適者生存」與「優勝劣敗」的自然進化
10 
 
步驟一：隨機產生初始族群，設定每代人口，設定菁英保留係數、交配機率、突變機率，針
對系統控制變數以二進位表示，構成一組染色體。 
步驟二：將基因解碼，由二進制轉換為十進制。 
步驟三：計算每個染色體的適應函數值。 
步驟四：如果已達到設定的運算次數則結束運算。如果不是，則繼續步驟五。 
步驟五：作菁英保留，將最好的直接複製至子代，此外，執行基因法則的三個主要運算規則，
以得到其餘子代。首先利用輪盤法選擇較佳基因，做為交配池中的母代；透過母代
間的隨機交配產生新的子代；最後在新的子代中隨機進行基因突變。然後，跳回步
驟二，進行下一代的運算。 
隨機產生初始族群，
設定參數
將基因解碼由二進制
轉換為十進制
計算適應函數值
是否符合終止條件？
輸出
否
是
保留精英，執
行基因法則三
種遺傳運算：
複製、交配、
突變
 
圖 3 基因法則流程圖 
 
4.3 特殊保護系統最佳化設定進行步驟 
針對電力過多區域，提出最佳化發電機組跳脫之策略與決策方法，以維持電力系統穩定
度。其中 PSS/E 軟體模擬之步驟如下： 
(1) 利用 PSS/E 中之 PSSLF4 程式模擬電力潮流分析使用收斂速度較快之全牛頓-拉弗森法進
行疊算，求解流程如圖 4 所示。首先輸入匯流排、負載、線路、發電機及變壓器等重要參
數之初始資料檔(*.SAV/RAW)檔後，指定搖擺匯流排，並檢查是否有元件被孤立，再重新
調整機組出力，直到出現合理地潮流收斂解為止。主要探討模擬系統於某一穩態運轉點之
各項運轉資料，包括各匯流排之電壓大小和角度，其目的是為求出此系統之最佳穩定收斂
解，以便再進行穩定度分析。 
(2) 利用 PSS/E 中之 PSSDS4 程式模擬暫態穩定度之時域分析，考量發生較大事故後系統之暫
態行為，模擬發電機組轉子角度歷經第一個擺動周期後，能否維持同步運轉。撰寫 PSS/E
動態程序，先將計算出之電力負載潮流解、機組參數、要量測的機組角度、頻率、有效功
12 
 
略微簡化及作參數確認，以避免電腦記憶體不足、及縮短執行時間。 
(2) 利用 PSS/E 模擬系統較弱線路之 N-3 輸電線跳脫事故時之響應。 
(3) 以基因法則作發電機組跳脫數量及位置之整體最佳化。在不同方式時重複(2)之模擬。獲
得前十最佳解之策略。 
(4) 分別將此十組最佳解之策略分別模擬其暫態穩定度、小信號穩定度、電壓穩定度情形，
刪去不穩定之解。保留前三組穩定之最佳解。 
(5) 考慮各種不同線路流量，約為額定流量之 20％至 100％。重複步驟(3)及(4)。 
(6) 考慮尖、中、離峰系統時，重複步驟(4)～(6)。 
(7) 與台電人員、專家學者討論是否合理或有改進空間。 
 
4.4 低頻響應原理 
本計畫所使用之系統為實際之電力系統，因此需要以 PSS/E 軟體模擬。唯為說明方便，
以單機對無限匯流排之低頻響應演算法說明，流程圖如圖 6 所示，詳細步驟說明如下： 
設定相關參數、讀取資料、建立機組狀態組合
矩陣
計算負載過載率L及頻率變化率Rf
滿足終止條件? 
將數據紀錄及繪出曲線圖  
否
是  
計算下一點時間、頻率及負載，分成下列兩種
情形：定頻率電驛跳脫及皆未跳脫
 
圖 6 電力系統頻率響應模擬流程圖 
步驟一：相關參數設定。 
建立低頻電驛卸載資料，包含設定初始頻率 f1 = 60 Hz、系統慣性值 H、系統功
率因數 PF、模擬時間 t、系統頻率變化係數 D、初始時間 t0 = 0 秒、初始負載量
PL、初始發電量 PG，而固定頻率式低頻電驛偵測時間 RFT 均設為 0.167 秒，所有
CB 動作時間 CBT 為 0.033 秒。 
14 
 
粒子群優法的初始化為使用一群隨機粒子。然後通過疊代找到最優解。在每一次疊代中，
粒子通過跟蹤兩個"極值"來改變本身的搜尋方向。第一個是粒子本身所找到的最佳解。這個
解叫做個體極值（pbest），另一個極值是整個種群目前找到的最佳解，這個極值是全體極值
（gbest）。粒子搜尋示意圖如圖 7 所示。在找到這兩個最優值時，粒子根據公式(1)、(2)來更
新自己的速度和新的位置。 
 
圖 7 粒子搜尋示意圖 
Vi
k+1
 = Vi
k
 + c1* rand() * (pbesti
k
 – Si
k
) + c2* rand() * (gbest
k
 - Si
k
)  (1) 
Si
k+1
 = Si
k
 + Vi
k+1
  (2) 
其中： 
Vi
k，Vi
k+1
 為粒子 i 在疊代 k 次原本與新的速度。 
c1 與 c2 為學習因子。 
pbesti
k
 為粒子 i 在疊代 k 次個體最佳位置記憶值。 
gbest
k 為在疊代 k 次群體最佳位置記憶值。 
Si
k，Si
k+1 為粒子 i 在疊代 k 次原本與新的位置。 
rand() 為介於 0~1 之間的隨機亂數。 
在公式(1)中，c1* rand()* (pbesti
k
 – Si
k
) 是粒子本身之認知模式，而 c2* rand() * (gbest
k
- Si
k
)
則為是粒子族群中是所謂的社會模式，在每一粒子的速度與移動距離都會限制在一個最大速
度 Vmax 與最大位移 Smax範圍，如果問題解的空間中的粒子更新後的速度與位移量超過最大限
制時，則粒子速度與移動距離就被限定為 Vmax和 Smax。 
粒子群優法的演算程序說明如下，其流程圖如圖 8 所示。 
步驟一：設定粒子參數、目標函數。隨機的方式產生每一個粒子的位置與速度。 
步驟二：針對所設定的目標函數，計算每一個粒子的適應函數值。 
步驟三：各粒子之適應函數值與粒子本身的最佳函數值記憶比較，獲得個體最佳位置 pbest。
個體最佳函數值與群體最佳函數值作比較，獲得群體最佳位置 gbest。 
步驟四：利用公式(1)、(2)改變粒子的速度與位置。 
步驟五：若是滿足終止條件則停止，否則重覆步驟二，終止條件通常為誤差值小於設定的誤
16 
 
(b) 由於實際系統上有自動發電控制(AGC)，只要未跳機，AGC 應可逐漸恢復運轉頻率，
即使未達 59Hz，亦可使用延遲低頻電驛之跳脫來恢復至 60Hz，唯系統頻率能盡快回
復正常，因此訂定 10 秒時頻率低於 59Hz 之百分比需低於 2%，即式(4)所示。 
59Hz
100% < 2%
e
n
n
 
低於 之數目
 (4) 
n = case 總數目 
(C) 各個低頻電驛之頻率及卸載率之範圍： 
固定頻率式低頻電驛設定最多八段，範圍介於 58.3~ 59.8Hz，電驛頻率相同者則將卸載
率相加。固定頻率式低頻電驛之卸載率設定：0.1%~6.4%，平均分成共 64 種狀況。 
 
4.7 低頻電驛設定進行步驟 
以粒子群優法作最佳化低頻電驛之頻率與卸載率之設定。進行步驟如下︰ 
(1) 閱讀相關文獻，作整理與分析。收集台電系統某一年之尖、中、離峰之輸電系統資料，
及重大事故發生情形描述。 
(2) 利用 PSS/E 模擬系統不同重大事故後，各個保護電驛跳脫設定、系統之頻率響應。 
(3) 針對 Matlab 與 PSS/E 結合做程式設計。 
(4) 以粒子群優法作低頻電驛之頻率與卸載率之設定。在不同設定下重複(2)之模擬，以獲得
適應函數值 LSR。 
(5) 考慮不同月份時系統尖、中、離峰不同時，重複步驟(4)。 
(6) 與台電人員、專家學者討論是否合理或有改進空間。 
在整個計畫執行上，因無論粒子群優法之最佳化，或 PSS/E 套裝軟體之模擬以判斷全系
統之穩定度情形，皆需要較長執行之時間。因此希望購置一台最新型及快速之電腦與周邊給
研究人員使用，以縮短程式執行時間。且若能有較多之人力投入此研究，將可作更多與更完
整之模擬。 
此外，粒子群優法理論上所求得之解為整體最佳解，但實際上有易落入區域最佳解、時
間太久之問題，目前雖提出改進之方法，但在計畫執行中仍將繼續創新思考更多之方法，嘗
試解決這方面問題。 
18 
 
表 3 台電 2008 年尖峰龍崎 E/S 發生 N-1-2 極端事故時需跳脫的發電機組 
STN flow (MW) 
 
跳脫台數 
< 4750 
(0 台) 
4750 
(4 台) 
4800 
(6 台) 
4850 
(8 台) 
4900 
(10 台) 
4950 
(10 台) 
5000 
(13 台) 
5050 
(16 台) 
> 5050 
(不穩定) 
南火 G4  ● ● ● ● ● ● ● X 
興達#3 G1  ● ● ● ● ● ● ● X 
南火 ST1  ● ● ●  ● ● ● X 
興達 ST1  ●  ● ● ● ● ● X 
興達#2 G1   ● ● ● ● ● ● X 
南火 G12   ●  ● ● ● ● X 
興達#3 G2    ● ● ● ● ● X 
興達#2 G2    ● ● ● ● ● X 
興達 ST2    ●  ● ● ● X 
南火 ST2   ●   ●  ● X 
興達#3 G3     ●  ● ● X 
興達#3 G4     ●   ● X 
興達#2 G3     ●   ● X 
南火 G11       ● ● X 
南火 G21       ● ● X 
南火 G22       ●  X 
興達 ST3        ● X 
表 4 龍崎 E/S 地區發生 N-1-2 之極端事故時需跳脫的發電機容量 
2008 年離峰 2008 年尖峰 
龍崎 E/S 北送電力 跳脫發電機容量 龍崎 E/S 北送電力 跳脫發電機容量 
< 4190MW 0 MW (0 台機組) < 4750MW 0 MW (0 台機組) 
4190MW 277MW (3 台機組) 4750MW 596MW (4 台機組) 
4220MW 371MW (4 台機組) 4800MW 716MW (6 台機組) 
4250MW 472MW (5 台機組) 4850MW 1023MW (8 台機組) 
4280MW 554MW (6 台機組) 4900MW 1121MW (10 台機組) 
4310MW 734MW (8 台機組) 4950MW 1210MW (10 台機組) 
4340MW 824MW (9 台機組) 5000MW 1457MW (13 台機組) 
4370MW 1153MW (12 台機組) 5050MW 1809MW (16 台機組) 
> 4370MW 系統不穩定 > 5050MW 系統不穩定 
20 
 
58.3Hz 302.10 0.891 0 0 50.00 0.147 352.1 1.038 
合計 5068.72 14.943 2924.52 8.622 2318.43 6.835 10311.7 30.40 
將各種假設條件、限制條件及 PSS/E 設定等輸入完成後，在利用 PSO 方法疊代結果計算
出近似最佳解，其卸載量之收斂情形及卸載規劃相關資料茲整理成表 7。將此設定代入 PSS/E
模擬尖峰負載時段之(1) 中火南 5 部機組跳脫、(2) 核二廠 2 部機組跳脫、(3) 核三 2 部機組
跳脫事故時，獲得跳脫情形如表 8 所示。而若是以台電公司之設定代入 PSS/E 模擬尖峰負載
時段之中火南 5 部機組跳脫核二廠 2 部機組跳脫、及核三 2 部機組跳脫事故時，獲得跳脫情
形如表 9 所示。 
表 7  PSO 求出之電驛設定值 
低頻電驛設定
(Hz) 
北 部 
(龍潭以北) 
中 部 
(龍潭～龍崎) 
南 部 
(龍崎以南) 
MW % MW % MW % 
第一段 59.7 126 1 － － － － 
第二段 59.6 99.7 0.8 － － － － 
第三段 59.5 － － 30.1 0.4 － － 
第四段 59.4 136 1.1 67.4 0.9 73.6 0.9 
第五段 59.3 － － 59.4 0.8 162 2 
表 8  尖峰負載事故響應（依照 PSO 計算結果卸載） 
     響應 
事故 
跳脫量 
(MW) 
卸載量 
(MW) 
最低頻率 
(Hz) 
故障後 10 秒 
恢復頻率(Hz) 
低頻電驛
跳脫段數 
核二 2 部 1846.2 255.8 59.4 59.4 第 1～3 段 
中火南 5 部 2622.5 754.2 59.2 59.2 第 1～5 段 
核三 2 部 1816.8 592.2 59.29 59.34 第 1～5 段 
表 9  尖峰負載事故響應（依照台電規範卸載） 
    響應 
事故 
跳脫量 
(MW) 
卸載量 
(MW) 
最低頻率 
(Hz) 
故障後 10 秒 
恢復頻率(Hz) 
低頻電驛
跳脫段數 
核二 2 部 1846.2 0 59.32 59.32 無 
中火南 5 部 2622.5 1572.4 59.16 59.43 第 1 段 
核三 2 部 1816.8 1089.3 59.19 59.55 第 1 段 
22 
 
 
圖 11 尖峰負載核三 2 部跳脫模擬(─未卸載，---PSO，…..台電) 
將此設定代入 PSS/E 模擬離峰負載時段之(1) 中火南 5 部機組跳脫、(2) 核二廠 2 部機組
跳脫、(3) 核三 2 部機組跳脫事故時，獲得跳脫情形如表 10 所示。而若是以台電公司之設定
代入 PSS/E 模擬尖峰負載時段之中火南 5 部機組跳脫、核二廠 2 部機組跳脫、及核三 2 部機
組跳脫事故時，獲得跳脫情形如表 11 所示。而使用 PSS/E 模擬離峰時以上重大故障之響應情
形分別如圖 12~14 所示。 
表 10 離峰時事故響應（依照 PSO 計算結果） 
     響應 
事故 
跳脫量 
(MW) 
卸載量 
(MW) 
最低頻率 
(Hz) 
故障後 10 秒 
恢復頻率(Hz) 
低頻電驛
跳脫段數 
核二 2 部 1838.6 532.8 59.37 59.39 第 1～4段 
中火南 5 部 2253.7 592.2 59.19 59.24 第 1～5段 
核三 2 部 1809.1 532.8 59.34 59.37 第 1～4段 
 
表 11 離峰時事故響應（依照台電規範卸載） 
    響應 
事故 
跳脫量 
(MW) 
卸載量 
(MW) 
最低頻率 
(Hz) 
故障後 10 秒 
恢復頻率(Hz) 
低頻電驛
跳脫段數 
核二 2 部 1838.6 0 59.23 59.25 無 
中火南 5 部 2253.7 1089.3 59.14 59.29 第 1 段 
核三 2 部 1809.1 0 59.22 59.23 無 
24 
 
六、結論與建議 
 
本研究應用智慧型控制方法於重大事故之電力不足端及過載端之穩定度控制。利用基因
演算法的特性可使系統達到快速收斂的動作，且使結果達到近似全域最佳解。以台電系統 2008
年尖峰、離峰之龍崎超高壓變電所引出線為例模擬暫態穩定度問題，發生輸電系統規劃準則
外的 N-1-2 事故作探討分析，設計一套特殊保護系統之發電機跳脫策略，結合興達電廠與南
火電廠，在系統穩定情況下，以最少發電機跳脫數和輸出波形第一個振幅的波峰與波谷差距
值之和為適應函數。 
系統暫態穩定度的問題，常發生於長距離且大容量輸電的情況下，以尖峰時段大於離峰
時段，所以在尖峰時段系統能承受較高的龍崎北送電力潮流量。模擬結果觀察得知，當龍崎
地區發生 N-1-2 事故時，若系統可維持穩定之情況，則不需啟動特殊保護系統。若龍崎北送
電力潮流量超出系統極限值時，啟動特殊保護系統也無法使系統達穩定狀態。 
當系統發生暫態穩定度之問題，發電機的轉子角度若沒有發生不穩定情況，則代表系統
穩定。本文為驗證所提出之方式，是否符合輸電系統規劃準則，為考慮系統有小擾動，使用
特徵值計算法以分析小訊號穩定度，透過 PEALS 軟體驗證基因演算法所得最佳解，驗證結果
之阻尼比皆符合系統所要求之情況與台電輸電系統規劃準則。 
第二年中，使用 PSO 做頻率及卸載率之最佳化設定，將設定代入電力系統模擬軟體 PSS/E
進行模擬。藉由台電系統之尖峰、離峰負載條件及所假設的各種故障下，規劃出適合的低頻
卸載規劃表，獲得下列結果： 
1. 利用最佳化演算法計算的結果，證明確實可利用 Matlab 軟體呼叫電力系統模擬軟體
PSS/E 配合執行，讓低頻卸載規劃的方式有所突破。 
2. PSO 法在計算最佳解的領域上，確實有相當程度的可靠。在本研究中所應用至台電尖峰、
離峰事故之模擬下，證明的確可在頻率及卸載量之規劃下讓頻率恢復穩定。 
3. 在各種模擬條件下除了頻率未低於 59.2Hz 不需卸載之外，其餘均可比台電之電驛卸載規
劃以較少之卸載量使系統恢復安全範圍，但由於模擬事故樣本數較少且未加入時間延遲
電驛、水力電廠電驛卸載等，故在卸載規劃的優劣評比上仍有許多探討的空間。 
 
6.2  未來研究方向 
 為使研究上更加的完善，茲針對未來的發展方向，進行以下分類敘述： 
1. 若要將模擬結果應用至實際系統則需要更詳細、完整的模擬絛件及電驛設定等才可
達成，本研究之模擬結果較著重於低頻電驛規劃方式的突破，應用於實際系統尚有
其它地方需要後續研究加以補充。 
2. 本研究之低頻卸載策略僅使用固定頻率式低頻電驛，並未考慮頻率變動率電驛，未
來可搭配頻率變動率電驛一同進行低頻卸載分析，進而達到更完整的低頻卸載策
略。 
3. 在 PSS/E 動態模擬中僅考慮北、中、南各三段卸載，並無加入時間延遲的卸載功能，
26 
 
參考文獻 
 
[1] P. Cote, S.-P. Cote, and M. Lacroix, "Programmable load shedding-systems-Hydro-Quebec's 
experience ," IEEE 2001 Power Engineering Society Summer Meeting, vol. 2, July 2001, pp. 
818-823. 
[2] P. Cote, M. Lacroix, "Benefits of special protection systems in competitive market," 22nd IEEE 
Power Engineering Society International Conference on Innovative Computing for Power - 
Electric Energy Meets the Market, 2001, pp. 192-195. 
[3] Fu Weihui, Sanyi Zhao, J. D. McCalley, V. Vittal, and N. Abi-Samra, "Risk assessment for special 
protection systems," IEEE Trans. Power Systems, vol. 17, no. 1, Feb. 2002, pp. 63-72. 
[4] J. Hsu, G. DeShazo, and W. Wong, "Use of special protection systems to overcome power 
congestion in the Western United States," 2002 International Conference on Power System 
Technology, vol. 3, Oct. 2002, pp.1339-1343. 
[5] A. Moshref, C. Henville, R. Curtis, K. Morison, L. Albassam, M. Owayedh, O. El Said, M. Ashiq, 
"Design of a special protection system to maintain system security at high import," IEEE 
Power Engineering Society General Meeting, vol. 1, July 2003, pp. 311-319. 
[6] 蘇仁達，電力系統保護策略之研究，國立台灣大學電機工程學研究所碩士論文，台北，
2000。 
[7] 劉文光，台電 2000 年系統低頻低壓卸載策略模擬研究，國立台灣大學電機工程學研究
所碩士論文，台北，2001。 
[8] 劉志文，電力防衛系統之研究-子計畫七：特殊保護策略之研究，行政院國家科學委員
會補助專題研究計畫期中報告，2003，第 1-8 頁。 
[9] 謝鎮安，特殊保護系統之可靠度分析，國立中山大學電機工程學系碩士論文，高雄，
2004。 
[10] 楊志仁，應用發電機組跳脫技術於台電特殊保護系統之研究，國立臺灣科技大學電機工
程所碩士論文，台北，2004。 
[11] 成易達，SPS 偶發事故分析自動化之研究，國立台灣大學電機工程學研究所碩士論文，
台北，2005。 
[12] 盧展南，特殊保護系統之規劃與設計，行政院國家科學委員會補助專題研究計畫期末報
告，2004，第 2-8 頁。 
[13] 盧展南，特殊保護系統可靠度評估及參數不確定性影響分析，行政院國家科學委員會補
助專題研究計畫期中報告，2007，第 1-21 頁。 
[14] Walter A. Elmore, Protective Relaying Theory and Applications, ABB, March 1994. 
[15] E. A. Urden, Load-Shedding and Frequency Relaying, Applied Protective Relaying, 
Westinghouse Electric Corporation, 1979, pp. 21.1 - 21.16. 
[16] IEEE Power System Relaying Committee Working Group, “A status report on methods used 
for system preservation during underfrequency conditions,” IEEE Trans. on Power Apparatus 
無研發成果推廣資料 
其他成果 
(無法以量化表達之成
果如辦理學術活動、獲
得獎項、重要國際合
作、研究成果國際影響
力及其他協助產業技
術發展之具體效益事
項等，請以文字敘述填
列。) 
學生對最佳化之程式撰寫、觀念建立，對電力系統重大事故產生原因及預防策
略有相當大之瞭解。 
 成果項目 量化 名稱或內容性質簡述 
測驗工具(含質性與量性) 0  
課程/模組 0  
電腦及網路系統或工具 0  
教材 0  
舉辦之活動/競賽 0  
研討會/工作坊 0  
電子報、網站 0  
科 
教 
處 
計 
畫 
加 
填 
項 
目 計畫成果推廣之參與（閱聽）人數 0  
 
