  
1 
行政院國家科學委員會專題研究計畫期末報告 
台灣電力系統全黑啟動加壓模式之研究 
計畫編號 : NSC 99-2221-E-002-217- 
執行期限 : 2010.08.01 至 2011.07.31 
計畫主持人 : 劉志文教授 
計畫參與人員 : 簡士恩、周一婷、黃聖閔、蘇育賢、鄭洤聖 
執行機構及單位名稱: 國立臺灣大學電機工程學系暨研究所 
Tel : (02)33663616    Email :cwliu@cc.ee.ntu.edu.tw 
 
           
  摘要 :本計畫針對全黑啟動電源傳輸階段，提出作為
搜尋加壓模式之目標函數(Objective Function)以及限制
條件(Constraints)，並以 Borland C++ Builder (BCB)發展
一套互動式(Interactive)電腦輔助全黑啟動加壓模式決策
系統(Black-Start Decision Supporting System, BSS)。此系
統具備視窗圖形化使用者介面(Graphical User Interface, 
GUI)，能依照目標函數之參數設定以及即時系統資料輸
入，規劃至少十組以上全黑啟動之最佳加壓路徑，並連
結電力潮流分析軟體 PSS/E 及電磁暫態分析軟體 EMTP
執行動態及暫態自動化模擬，分析各匯流排超過電壓安
全範圍之均方根誤差大小以供台電操作員調整加壓模
式優先順序之考量，最後以視覺化圖形呈現模擬結果與
統計圖表。透過模擬測試與實際應用於台灣電網的案例
分析，BSS 確實具有合理正確之規劃，且具備良好運算
效能與應用彈性，更可提升復電初期全黑啟動之效率與
正確性，降低全黑啟動的風險與台電操作員的壓力。 
 
關鍵字 : 全黑啟動、視窗圖形化使用者介面、加壓路
徑、RMSE、PSS/E、EMTP。 
 
Abstract: This project has developed a Black-Start 
Decision Supporting System (BSS) which is implemented 
by Borland C++ Builder. BSS is able to automatically 
generate above 10 best energizing paths refer to the 
parameters of the objective function and real-time data of 
the power system. Also, it links to Power System Simulator 
for Engineering (PSS/E) and Electromagnetic Transients 
Program (EMTP) to simulate dynamic and electromagnetic 
transient voltage for each bus in the planned path. In 
addition, BSS has the feature of model visualization, which 
can display the optimized black-start models and 
simulation results by graphic symbols and histograms. 
Through the simulation and the application of BSS in the 
black start strategies planning for Taiwan Power System 
(TPS), the high efficiency, accuracy, and flexibility of BSS 
has been consolidated. With the aid of BSS, the risk of 
black-start can be reduced, and the stress of dispatchers in 
energy control center can be much relieved. 
Keyword : Black-Start, energizing path, GUI, RMSE, 
PSS/E, EMTP. 
 
一、介紹 
 
由於台灣位於板塊交界處地震高危險區，造成電塔
倒塌風險相對提高，地理型態狹長造成輸電線方向受
限，且位於亞熱帶夏季負載較高，工業密集使其電弧爐
或閘流體等設備所產生之諧波與閃爍現象等影響供電
品質，加上近年來電力系統負載需求不斷增加、系統不
斷的擴增以及區域電力不均等因素，導致電力系統穩定
度不足，遭受大規模停電之機率相對的提高。台電系統
為一獨立供電系統，無鄰近之電力系統互聯，現有電源
及負載相當密集，若系統內重要地點發生故障且保護處
理不當，可能擴大事故而引起整個電力系統崩潰。因
此，如何規劃最佳的台電系統全黑啟動電力傳輸線加壓
模式，避免該路徑的輸電線電壓過高，同時滿足實功與
虛功等限制條件，是全黑啟動機組電源能順利加壓至大
型火力發電機組作為第一階段全黑啟動的重要課題。 
全黑啟動的過程中，在發電機組、輸電線及匯流
排、變壓器與電抗器等皆有許多相關的議題，在過去的
文獻中提供了不少經驗與研究；學者P. G. Boliaris等人研
究汽力機組輔機於全黑啟動時，電力經輸電線、斷路器
及變壓器之傳輸，與全黑啟動機組間之影響[1]；在大規
模停電後執行復電調度過程的問題研究方面，則有M.M 
Adibi等人[2-3]發表當電力系統發生大規模停電後，調度
員於執行復電調度的過程中，需面對及考量的可能問
題，尤其是復電過程中系統過電壓問題之克服方法。由
於全黑啟動為多目標(Multi-objective)與動態(Dynamic)
的高複雜度問題，過去的文獻有利用專家系統 (Expert 
System) [4-5] 與啟發式(Heuristic)最佳化演算法[6-10] 
應用於電力系統復電決策最佳化。本計畫首先提出一完
整的全黑啟動目標函數與限制條件，在最佳化方法上，
本計畫利用蟻拓演算法搭配圖論定理並有效初始化參
數，使得運算效率大大提升。此外，本計畫更結合了自
動模擬與具象化(Visualization)技術，發展了一套互動式
電腦輔助全黑啟動加壓模式決策系統(BSS) 協助台灣電
力公司規畫全黑啟動決策，亦可作為日後全黑啟動線上
(Online)服務應用的核心工具。 
本報告其他的章節安排如下，第二章介紹全黑啟動
的目標函數與限制條件，第三章介紹互動式電腦輔助全
黑啟動加壓模式決策系統的架構與核心模組，第四章則
是模擬驗證，最後是本計畫的結論及成果自評。 
二、全黑啟動問題的數學模型 
本計畫為全黑啟動加壓模式之研究，旨在復電初期
以電力系統架構中的輸電系統為傳輸路徑，使啟動電源
能順利加壓至各大型目標電廠，必要時可以加上部分負
  
3 
maxV :為電壓安全範圍上界。 
kP  :為加壓路徑上第 k 個輸電線之實功率。 
max
kP :為加壓路徑上第 k 個輸電線之實功率承載上限。 
kQ :為加壓路徑上第 k 個輸電線之虛功率。 
max
kQ :為加壓路徑上第 k 個輸電線之虛功率承載上限。 
 
 
 三、BSS 架構與核心模組 
  
本計畫以 Borland C++ Builder (BCB)發展一套互動
式 (Interactive)電腦輔助全黑啟動加壓模式決策系統
(Black-Start Decision Supporting System, BSS) ，BSS 的
流程如圖 2 所示。其流程主要包含電力系統建立、資料
處理、演算法運算等三個階段。 
 
移除輸電線網路中
所有變壓器設置
依照機組起點與終點調整
變壓器投入之位置
設定北、中、南、東
區域之輸電線狀態
輸入全黑時期
損毀之匯流排及輸電線
建立資料結構
匯入全黑機組及
目標匯流排等資料
連結PSS/E程式與EMTP
進行模擬
加入部分負載
 協助電壓降低  
是否符合
限制條件
調整電抗器配置
降低電納值
否
是否
是
System Configuration 
Data Processing
Evaluation 
顯示結果
完成全黑啟動加壓模
式初步規劃
依照目標函數值排序
輸出十組最佳可行解
以投入所有電抗器之情況
運算輸電線最低併聯電納
Dijkstra演算法產生
最少經過開關數
最佳化演算法
讀入系統資料
選擇欲模擬之路徑
調整斷路器操作模式
與投入時間
程式開始
調度人員依實際情況
加以調整
是否有經過
設置電抗器之匯流排
 
圖 2 電腦輔助全黑啟動加壓模式決策系統流程架構 
 
建立一套全黑啟動加壓模式的決策系統，頇隨時處
理 系 統 資 料 的 變 化 ， 資 料 彼 此 的 相 依 性 (Data 
Dependency)甚高，為了使 BSS 的程式能針對不同的運
算做到平行處理(Parallel Processing)，並針對相依之資料
及參數執行有效率的傳遞及運算，本論文將 BSS 之內部
程式由序列(Serial)的流程改良為模組(Module)化的程式
區塊，不但可以提升程式的效率，更能提升後續維護發
展的便利性及完整性。如圖 3 所示即為 BSS 內部程式的
模組圖，系統共分為資料處理、運算核心、決策輸出等
三大模組。 
資料儲存記憶體
資料處理 運算核心
使用者介面
決策輸出
 
圖 3 全黑啟動決策支援系統內部模組 
在資料處理模組中，分為建立系統結構及資料處理
兩執行區塊，其目的主要為讀入特定年度的系統檔案，
即 PSS/E raw data 檔案，其含有各匯流排編號、名稱、
型態、區域等資訊，亦包含匯流排連接網路、變壓器特
性、電廠之輸出功率等電力系統重要資料。其次，讀入
全黑機組、目標匯流排、供電至配氣站之變電所與目標
電廠等檔案，其含有發電容量、廠內用電與機組特性等
相關資料。此外，於全黑時期操作員即時輸入之損毀匯
流排與輸電線路等資料，以及全黑時期系統各狀態參
數，將於此模組加以彙整為完整的系統結構。為使後續
的演算法能求得合理的結果並增進全黑啟動之效率並
降低風險，全黑機組與目標電廠之所在區域不可相隔過
遠，起點至終點之加壓路徑亦不允許繞至其他較遠區
域。區域限制準則於圖 3 所示。 
 
1
6
1
石門
451
石
門
 4
5
0
1
6
1
林口
223
林
口
 2
2
0
1
6
1
69
花
蓮
 3
9
5
1
3
4
5
觀二
860
觀
二
 8
6
1
3
4
5
明潭
711
明
潭
 7
1
0
1
6
1
中火
2259
中
火
 2
2
5
1
1
6
1
通霄
607
通
霄
 6
0
0
龍澗
1401
1
6
1
德基
841
德
基
 8
4
0
1
6
1
鉅工
851
鉅
工
 8
5
0
1
6
1
觀一
861
觀
一
 8
6
0
1
6
1
深澳
電廠
深
澳
 2
0
0
3
4
5
興達
1077
興
達
 1
0
9
0
1
6
1
大潭
電廠
大
潭
 1
8
5
1
3
4
5 大
潭
 3
0
0
協和
電廠
協
和
 1
0
0
3
4
5
1
6
1
林口
電廠
林
口
 2
2
0
1
6
1
通霄
電廠
通
霄
 6
0
0
1
6
1 通
霄
 6
1
0
1
6
1
中部
火力
中
火
 2
2
5
1
3
4
5 中
火
 5
3
0
3
4
5 中
火
 5
4
0
1
6
1
興達
電廠
興
達
 1
0
9
0
3
4
5
興
達
 1
0
8
0
1
6
1
南部
火力
南
火
 1
2
0
0
1
6
1 南
火
 1
2
1
0
1
6
1 大
林
 1
1
1
0
1
6
1 大
林
 1
1
2
0
1
6
1 大
林
 1
1
0
0
大林
電廠
1
6
1
南火
1201
南
火
 1
2
0
0
1
6
1
大林
1105
大
林
1
1
2
0
北部 中部 南部
北部 中部 南部
 
圖 3 加壓路徑之區域限制準則示意圖 
 
運算核心模組包含演算法、自動化模擬、目標函數
分析及電壓暫態分析等四個區塊，其功能係針對資料處
理模組所建立的系統檔案以及調整後之系統資料，執行
演算法運算，並依照操作員調整的目標函數參數，求得
全黑啟動加壓模式之最佳可行解，配合三種斷路器投入
模式，連結 PSS/E 及 EMTP 針對此加壓模式作電壓動態
及暫態模擬，最後將電壓的暫態峰值與穩定值作一分
析，以驗證此加壓模式是否會造成線路過電壓與暫態突
波過大等問題。在最佳化方法上，本計畫採取蟻拓演算
法(Ant Colony Optimization, ACO)與圖形演算法(Graph 
Algorithm)並行的方式，蟻拓演算法流程如圖 4 所示。 
BSS 除了可以因應系統變化，快速運算出最佳的全
黑啟動加壓路徑與加壓模式，亦提供模擬自動化，自動
將決策轉換成特定格式並產生 PSS/E 與 EMTP模擬執行
檔，以協助操作人員獲得更多資訊以判斷全黑啟動決策
的安全性。本計畫使用 C++撰寫程式，依最佳路徑搜尋
結果與欲加壓模式，自動產生所需的各個執行步驟 idv
檔案及啟動負載潮流程式與動態模擬來執行這些 idv 批
次檔所需之 bat 檔案。依照台灣電力公司的規畫原則，
於預設的加壓路徑上投入斷路器之模式共有三種: 
1. 分段全壓加壓:即啟動電源到達額定電壓後，斷路器
於不同時間點分段投入併聯輸電線。其優點為可防
止電壓上昇過快，風險較低；然而分段的方式將使
復電時間增加。 
2. 全段全壓啟動:即在事先規劃好之全黑啟動加壓路
徑上，將所有經過之匯流排開關皆先投入，待啟動
電源達到額定電壓後，使所有斷路器一次投入。其
優點為加壓至目標電廠耗費時間短，然而卻易產生
  
5 
表 1 明潭至林口自動模擬電壓波形分析表 
龍潭北
龍潭南
頂湖
BUS
明潭 365.4 337.2 329.9 338.3 337.2 328.6 741.0 613.2 391.2 339.5 339.8 339.5
中寮南 366.0 336.8 329.5 337.9 336.8 328.2 694.5 623.6 393.1 339.1 339.5 339.2
366.0 328.1 321.0 329.1 328.1 319.7 724.5 688.4 395.6 331.3 331.7 331.3
342.7 328.1 321.0 329.1 328.1 319.7 481.6 688.4 395.6 331.3 331.7 331.3
329.3 326.4 319.4 327.4 326.4 318.1 568.2 696.1 395.1 329.8 330.3 329.8
頂湖東 154.4 153.1 149.8 153.6 153.1 149.2 200.2 324.8 184.4 153.9 154.1 153.9
東林 154.6 153.3 150.0 153.8 153.3 149.4 265.8 328.1 185.0 154.1 154.3 154.1
林口 154.8 153.4 150.1 153.9 153.5 149.6 271.7 330.5 185.5 154.3 154.5 154.3
PSS/E Vt(max) (kV) PSS/E Vs (kV) EMTP Vp(max) (kV) EMTP Vs (kV)
MODE 2 MODE 3MODE 1 MODE 2 MODE 3MODE 1 MODE 2 MODE 3MODE 1 MODE 2 MODE 3MODE 1
 
表 2 大觀二廠至林口自動模擬電壓波形分析表 
峨眉
龍潭南
頂湖
BUS
大觀二 355.4 339.0 346.0 338.4 338.4 336.6 746.2 578.5 383.4 339.9 340.2 340.0
中寮北 355.7 338.5 345.7 337.9 337.9 336.1 700.3 591.7 384.6 339.6 339.9 339.6
355.0 332.1 339.1 331.5 331.5 329.8 696.2 651.3 389.4 334.2 334.6 334.2
342.7 330.2 337.1 329.6 329.6 327.9 602.0 663.2 390.3 332.5 332.9 332.5
330.6 328.5 335.4 327.9 327.9 326.3 538.9 670.7 390.6 331.0 331.4 331.0
頂湖東 155.0 154.1 157.3 153.8 153.8 153.0 199.2 313.0 182.3 154.5 154.7 154.5
東林 155.3 154.3 157.5 154.0 154.0 153.2 271.3 316.1 183.2 154.7 154.9 154.7
林口 155.4 154.5 157.7 154.2 154.2 153.4 237.2 318.5 184.0 154.8 155.1 154.9
PSS/E Vt(max) (kV) PSS/E Vs (kV) EMTP Vp(max) (kV) EMTP Vs (kV)
MODE 2 MODE 3MODE 1 MODE 2 MODE 3MODE 1 MODE 2 MODE 3MODE 1 MODE 2 MODE 3MODE 1
 
觀察電壓波形的暫態峰值與穩態值，因為有投入併
聯電抗器，在 Mode2 的方式下，以 PSS/E 模擬之暫態及
穩態電壓，整體而言相較於 Mode 1 與 Mode 3，其電壓
較安全；而對於 EMTP 模擬之穩態電壓瞬時值，則三種
斷路器操作模式幾乎相同；另外針對 EMTP 模擬之電磁
暫態三相峰值分析，全壓啟動的暫態電壓峰值 Mode 1
較來得低，而較 Mode 3 為高，但其每一匯流排之暫態
電壓峰值皆在電壓安全範圍之內。由此可知，全壓啟動
的模式較為適合於全黑啟動時加壓 345kV 輸電線，其加
壓過程時間短，且經過適當的併聯電抗器配置，其在穩
態及暫態的電壓波形可較分段加壓更佳。 
最後計算兩條路徑之目標函數值，如下圖 7 所示，
可知由大觀二廠至林口之加壓路徑較佳。BSS 模擬結果
與決策輸出的畫面展示如圖 8 至圖 10 所示。                     
加壓模式 B Min.B N-N0 TR-TR0
0.7
1 1.5
1 1
1
0.5
1
345 161
345 161
明潭
觀二
林口
林口
各目標權重
各目標懲罰因子
-0.3529
-0.3952
-3.1529
-3.5952
0
0
0
0
0.1495
0.1494
0.2736
0.2736
TOTAL RMSE
MODE 1 MODE 2 MODE 3
Objective 
FunctionValue
0
0
目
標
函
數
值
-3.0161
-3.4584
圖 7 明潭與大觀二至林口之目標函數值分析 
 
 
圖 8 大觀二至林口 PSS/E 電壓暫態峰值直方圖 
 
 
圖 9 大觀二至林口 EMTP 電壓暫態峰值直方圖 
 
圖 10 大觀二至林口之加壓路徑 
 
台灣電力公司所規劃的全黑加壓決策如圖6所示，
BSS產生的最佳路徑規劃與台電公司的規劃完全一致。
此外，台電全黑啟動加壓路徑規報告[12]指出大觀二廠
為優先考量之全黑機組，亦符合BSS的分析結果，使BSS
的可行性獲得更進一步的驗證。 
 
東林 林口
東林 林口
深美 協合
明潭
大觀二
中寮南
中寮北
龍潭北
峨眉
龍潭南
深美
龍潭南
頂湖
協合
頂湖
龍潭北
頂湖東
頂湖東
板橋
A
B
C
D  
圖 5.2 台電輸電線全黑啟動加壓模式之規劃
 
五、結論 
本計畫針對全黑系統加壓模式相關議題及演算法
作一研究，並應用研究的內容，發展一套互動式電腦輔
助全黑啟動加壓模式決策系統，其具備系統資料即時更
新、電源加壓模式、開關切換時間及目標函數參數等之
設定，依照最新系統狀態及目標函數快速運算出至少十
組全黑啟動加壓模式之最佳解，且配合不同的電源加壓
模式、開關切換時間以及電抗器配置位置之設定，自動
連結 PSS/E 及 EMTP 進行動態及暫態的模擬，使電力系
統調度人員得以迅速掌握必要資訊。 
透過本計畫之模擬與分析，可針對全黑啟動輸電線
加壓模式，設定合理的目標函數與全黑啟動機組及電抗
器之配置，產生良好的全黑啟動決策，模擬結果佐證以
及驗證 BSS 具備良好運算效能與應用彈性，可大幅提升
復電初期全黑啟動之效率與正確性，並降低全黑啟動的
風險與台電操作員的壓力。 
 
國科會補助計畫衍生研發成果推廣資料表
日期:2011/11/09
國科會補助計畫
計畫名稱: 台灣電力系統全黑啟動加壓模式之研究
計畫主持人: 劉志文
計畫編號: 99-2221-E-002-217- 學門領域: 電力系統
無研發成果推廣資料
其他成果 
(無法以量化表達之成
果如辦理學術活動、獲
得獎項、重要國際合
作、研究成果國際影響
力及其他協助產業技
術發展之具體效益事
項等，請以文字敘述填
列。) 
本計畫研究內容與原計畫書目標相符，可應用在實際台電系統當中。未來將擴
大全黑啟動的研究於全面復電的規劃，包含輸電線、配電線以及負載的最佳化
復電決策，以及子系統合聯點之研究。 
 成果項目 量化 名稱或內容性質簡述 
測驗工具(含質性與量性) 0  
課程/模組 0  
電腦及網路系統或工具 0  
教材 0  
舉辦之活動/競賽 0  
研討會/工作坊 0  
電子報、網站 0  
科 
教 
處 
計 
畫 
加 
填 
項 
目 計畫成果推廣之參與（閱聽）人數 0  
 
