行政院國家科學委員會專題研究計畫成果報告 
澎湖離岸風場容量與 LVRT 之研究 
The Study of LVRT and Generation Capacity on Penghu Offshore Wind Farm 
 
計畫編號：NSC 99- 2221- E- 236- 016- 
執行期限：99年8月1日至100年7月31日 
主 持 人：李清吟 東南科技大學電機工程系 
E-mail：cylee@mail.tnu.edu.tw 
 
摘要 
本計畫使用PSS/E作為分析軟體工具，以西元
2015年台澎海纜舖設完成後之台電系統為研究標
的。針對澎湖離岸風場併入系統後，進行各種案例
分析，包括系統故障對風場衝擊、風場解聯及對系
統影響等，以保障台灣與澎湖系統供電可靠度。另
外，本計畫亦探討風場不同裝置容量，分別為
100MW，200MW與300MW下之低電壓安渡能力，
探討風場在有無含低電壓穿越能力裝備時，比較併
入點的動態響應，同時評估有無裝設低電壓安渡裝
備對於導致風場跳脫之故障點位置差異，藉由此研
究澎湖離岸風場裝設低電壓安渡對於系統穩定度之
影響。最後，本計畫再分別利用蓄電池儲能設備
(BESS)、靜態虛功補償器(SVC)及靜態同步補償器
(STATCOM)等補償元件改善系統動態響應，來探討
不同補償元件後對於系統及風場衝擊響應。 
 
關鍵詞：離岸風場、低電壓安渡、系統衝擊、穩定
度改善 
 
Abstract 
This proposal, adopting PSS/E as the analysis 
software, finds its study subject in the Taipower system 
to which the Penghu offshore wind farm will be 
connected in 2015 after the completion of the 
Taiwan-Penghu submarine cable system. The proposal 
aims at analyzing the steady and transient state features 
in various scenarios after the large-scale offshore wind 
farm is connected into the power system so as to ensure 
reliable power supply of the Taiwan and Penghu power 
systems. Major features under analysis include: impacts 
of system fault on wind farm, wind farm cut out, and 
the impacts of the power system. The proposal further 
examines the LVRT (low voltage ride through) 
capability of the wind farm in the three different 
capacities of 100MW, 200MW and 300MW. Moreover, 
how the presence and absence of LVRT equipment will 
influence the dynamic responses at the PCC and the 
location of the fault that causes the tripping of the 
offshore wind farm are also examined to help assess the 
impacts of the wind farm’s LVRT capability on system 
stability. Finally, the proposal uses BESS (battery 
energy storage system), SVC (static var compensator), 
and STATCOM (static synchronous compensator) to 
improve the system’s dynamic responses, exploring the 
impacts of various compensation components on the 
power system and the wind farm. 
 
Keywords：Offshore Wind Farm, Low Voltage Ride 
Through, System Impact, Stability 
Improvement 
 
I. 前言 
為了落實政府擬訂「綠色能源」政策，台電公
司近年來積極發展再生能源，其中風力發電被視為
未來發展重點之一。為了有效開發台灣西部海域之
風力資源，近年來除持續開發陸域風場外，礙於陸
域適合建置風場區域愈來愈少，台電公司已逐漸移
向於離岸式風場之開發，其中以澎湖群島地區擁有
相當豐富風力資源，加上當地以燃油方式為基礎的
供電成本過高等誘因，促使台電公司規劃於未來將
於澎湖外海興建大型離岸風場，藉此由離岸風場供
應島上民生與商業用電。 
雖擁有相當良好之開發潛力，唯澎湖本島電力
系統現為一獨立系統，風力發展受限於系統佔比限
制無法進行大量開發。因此台電公司目前已著手規
劃興建台澎海底電纜，屆時將可大量開發澎湖當地
風力資源。然而風力乃屬於間歇性能源，難免導致
漸修正以往觀點，站在系統穩定度立場要求風力機
組在系統發生故障期間能持續維持併網狀態運轉，
並能協助系統恢復穩定，此要求即稱為低電壓穿越
[4]。 
因此，自2011年起根據「台電公司再生能源發電
系統併聯技術要點」規定風機設備若併接於特高壓
系統以上者須具備低電壓穿越能力，並要求系統發
生故障造成責任分界點電壓驟降時，風機必須持續
運轉[5]。關於台電公司規範之低電壓穿越能力曲線
詳如圖2(圖中粗線)所示，若責任分界點電壓跌落於
圖中粗線以上，風機必須持續運轉。因此若採用本
計畫風機模型預設之低電壓穿越曲線(即某Type C廠
家建議)參數(圖中虛線)將會不符合台電公司規範。
因此本計畫除使用某Type C廠家建議低電壓穿越曲
線外(表2所示)，同時亦使用符合台電低電壓穿越要
求之運轉曲線之參數，詳細曲線示意圖與參數分別
如圖2(圖中細線)與表3所示。本計畫將探討澎湖離岸
風場採用不同低電壓穿越能力參數，分別為未含、
某Type C風機廠家建議與符合台電低電壓穿越能力
參數情況下，比較三者間對於系統穩定度差異。 
0.1
0.2
0.3
0.4
0.5
0.6
0.7
0.8
0.9
1.0
1.1
1.2
Time(second)
P
e
r
 u
n
it
時間
責
任
分
界
點
電
壓
低電壓開始時間
台電規範之LVRT
某Type C廠家建議之LVRT
本文設定之LVRT
0 1 2 3 4 5 6 7 8 9 10 11 12 13 14
風場須維持運轉
且不得跳脫
圖2. 台電、某Type C廠家建議及本計畫設定之LVRT曲線 
 
表2. 某Type C風機廠家建議之低電壓穿越參數 
低過電壓範圍 風機耐受範圍 
0< V < 0.30 0.02 秒 
0.30 < V < 0.70 0.1 秒 
0.70 < V < 0.75 1.0 秒 
0.75< V < 0.85 10 秒 
0.15 < V < 1.1 正常運轉 
 
表3. 依照台電公司規範設計之低電壓穿越參數 
低電壓範圍 風機耐受時間 低電壓範圍 風機耐受時間 
0< V <0.15 切離 0.55< V <0.60 2.000 秒 
0.15< V<0.20 0.667 秒 0.60< V <0.65 2.167 秒 
0.20< V<0.25 0.833 秒 0.65< V <0.70 2.333 秒 
0.25<V <0.30 1.000 秒 0.70< V <0.75 2.500 秒 
0.30< V<0.35 1.167 秒 0.75< V <0.80 2.667 秒 
0.35< V<0.40 1.333 秒 0.80< V <0.85 2.833 秒 
0.40< V<0.45 1.500 秒 0.85< V <0.90 3.000 秒 
0.45< V<0.50 1.667 秒 0.90< V <1.0 正常運轉 
0.50< V<0.55 1.833 秒   
 
IV. 探討離岸風場併入系統之衝擊 
一般電力系統於正常運轉不時受到各式各樣的
小擾動，如小量負載變化、輸電線路操作切換、電
抗器與電容器投入與切離等，偶而也會遭遇電力設
備故障與天然雷擊災害等各種事故所造成之大擾
動。廣義而言，電力系統穩定度是指各發電機組於
正常或遭受各種擾動情況下，是否仍能持續維持同
步運轉的能力。 
本章節探討澎湖離岸風場併入系統前後，當系
統故障發生時系統是否有更加或更差的暫態穩定
度、臨界清除時間及不同風場容量下低電壓安渡能
力探討。 
(一). 轄區系統故障之暫態 
本節探討澎湖離岸風場併入系統前後，當系統
故障發生時，系統是否有更加或更差的暫態穩定
度，其中系統穩定度與否判別是以系統內發電機組
於故障清除後轉子角度、電壓及頻率是否維持同步
運轉作為依據，且探討穩定度是否符合規劃準則之
要求是以系統臨界故障清除時間作為評估。依據「台
電公司輸電系統規劃準則」規範，有關 345kV 與
161kV 系統暫態穩定度模擬步驟於後，345kV 系統模
擬方法係考慮變電所匯流排出口處發生三相短路故
障，而非故障端以 4 週波清除，故障端之臨界清除
時間設定在 4.5 週波；161kV 系統模擬方法係考慮變
電所匯流排出口處發生三相短路故障，而非故障端
以 7 週波清除，故障端之臨界清除時間設定在 12 週
波[6]。 
因此考慮海纜鋪設完成後，澎湖離岸風場輸出
電力透過海纜輸送回台灣系統側之引接口，其地理
位置乃屬於台電公司嘉南供電區處所屬之嘉民 E/S
超高壓轄區範圍內，故本文選擇嘉民 E/S 轄區內
161kV 及 345kV 系統，分別為口湖 D/S 161kV 及嘉
民 E/S 345kV 發生故障作為風場併入後，系統是否有
更加或更差的暫態穩定度判別依據，其中故障位置
如圖 3 所示。探討澎湖離岸風場運轉採用功率因數
控制設定 1 模式下，併入 2015 年台電離峰系統前
後，探討故障清除後是否維持機組同步運轉能力
外，同時亦觀察系統電壓與頻率暫態響應情形。 
 
澎湖
 161kV 口湖 
161kV
澎湖離岸風場
麥寮
塑化
彰林
南投
中寮
(南)
(北)
大觀二廠
明潭 鳳林
天輪
中科
中港霧峰
嘉民
後壁
七股
興達
(南)
(北)
路北
龍崎(北)
(南)
瀰力
仁武
高雄
彰濱
中火
161kV故障點
口湖H
345kV故障點
嘉民E
南科
全興
圖 3. 模擬轄區系統故障暫態之故障點位置 
之風機斷路器開關，導致故障尚未清除前，澎湖離
岸風場即自系統切離。 
圖 9 所示為故障前後之系統機組轉子角度響
應。於離岸風場併入後，受到系統區域電力傳送量
與方向影響，使得中火與興達機組初始穩態轉子角
度較離岸風場併入前較高。於 1 秒故障發生後，各
機組雖受到故障衝擊影響，但於故障清除後，系統
機組仍有足夠同步及阻尼轉矩來維持同步運轉。 
經由模擬結果可知，離峰系統下於口湖 161kV
系統發生三相短路故障至清除期間，不論澎湖離岸
風場併入前、離岸風場併入後因故障切離或離岸風
場持續與系統併聯運轉，系統電壓、頻率及機組角
度雖受故障衝擊影響，但於故障清除後均可回復正
常運轉，亦符合台電公司 161V 系統運轉準則與再生
能源併聯技術要點臨界清除時間 12 週波之規定。 
離
岸
風
場
併
入
前
之
併
接
點
電
壓
離
岸
風
場
併
入
前
之
併
接
點
頻
率
離
岸
風
場
併
入
採
用
某
T
y
p
e
 C
廠
家
建
議
L
V
R
T
之
併
接
點
電
壓
離
岸
風
場
併
入
採
用
某
T
y
p
e
 C
廠
家
建
議
L
V
R
T
之
併
接
點
頻
率
離
岸
風
場
併
入
採
用
台
電
規
範
L
V
R
T
之
電
壓
離
岸
風
場
併
入
採
用
台
電
規
範
L
V
R
T
之
頻
率
初始      故障期間    故障清除(穩態)
1.0103pu 0.0000pu 1.0102pu
60.00Hz 64.88Hz 59.98Hz
1.0005pu 0.0000pu 1.0266pu
1.0005pu 0.0000pu 1.0266pu
60.00Hz 62.39Hz 59.95Hz
60.00Hz 62.37Hz 59.95Hz
澎湖P/S 161kV(併接點)頻率
澎湖P/S 161kV(併接點)電壓
0.13pu
風場併入前:
風場併入後(某Type C廠家LVRT)：
風場併入後(台電規範LVRT)：
頻
率
風場併入前:
風場併入後(某Type C廠家LVRT)：
風場併入後(台電規範LVRT)：
電
壓
圖 7. 161kV 暫態之併接點電壓與頻率響應 
 
100.8MW
離岸風場至併接點實功率(一回線)
離岸風場至併接點虛功率(一回線)
-20.03MVAr
0MVAr(某Type C廠家&台電之LVRT )
0MW
(某Type C廠家&台電之LVRT )
20.43MVAr(某Type C廠家&台電之LVRT )
2.43MW(某Type C廠家&台電之LVRT )
圖 8. 161kV 暫態之離岸風場輸出實、虛功率 
 
離
岸
風
場
併
入
前
之
中
火
#
1之
轉
子
角
度
離
岸
風
場
併
入
前
之
興
達
#
1之
轉
子
角
度
離
岸
風
場
併
入
採
用
某
T
y
p
e
 C
廠
家
建
議
L
V
R
T
之
中
火
#
1之
轉
子
角
度
離
岸
風
場
併
入
採
用
台
電
規
範
L
V
R
T
之
中
火
#
1之
轉
子
角
度
離
岸
風
場
併
入
採
用
某
T
y
p
e
 C
廠
家
建
議
L
V
R
T
之
興
達
#
1之
轉
子
角
度
離
岸
風
場
併
入
採
用
台
電
規
範
L
V
R
T
之
興
達
#
1之
轉
子
角
度
風場併入前:
風場併入後(某Type C廠家LVRT)：
風場併入後(台電規範LVRT)：
風場併入前:
風場併入後(某Type C廠家LVRT)：
風場併入後(台電規範LVRT)：
初始        最高          最低       穩態
11.52o 9.74o
7.03o 7.75o 6.23o
32.86o 33.63
o 30.78o
32.86o 33.62
o 30.78o
28.22o 29.52o 26.49o
28.22o 29.52o 26.49o
中
火
興
達
10.83o
7.04o
32.59o
32.59o
27.89o
27.90o
10.83o
中火#1 (未併入離岸風場) 興達#1 (未併入離岸風場)
中火#1 (併入離岸風場)
興達#1 (併入離岸風場)
圖 9. 161kV 暫態之中火與興達轉子角度響應 
(二). 澎湖離岸風場併入之故障臨界清除時間探討 
台灣電力系統具高密度系統、南北縱向及孤立
之特性，殊於全球其他區域之電力系統，尤其於尖
峰時段，北部電力供需缺口須由南部電力北送方式
來補足。雖目前台電公司已建置南北三路六回超高
壓輸電線傳送電力，但若遭遇重大事故，亦可能產
生傳送穩定度問題。因此本節以暫態穩定度之關鍵
指標-系統故障臨界清除時間，系統配合台澎海纜鋪
設完成並加入澎湖離岸風場後，以系統故障發生
後，分析判斷系統能否回復至另一新帄衡運轉點(發
電機組是否失步)，作為系統故障臨界清除時間增加
與否之探討。 
故本章節以 2015 年台電離峰系統作為探討案
例，針對澎湖離岸風場加入系統前後，分別於北中
南分別於龍潭北、嘉民及龍崎南之不同地點發生三
相短路故障，模擬澎湖離岸風場容量分別為
200MW、400MW 情況下併入系統前後，探討系統匯
流排之故障臨界清除時間變動差異。模擬澎湖離岸
風場併入前後，其系統北中南主要超高壓匯流排故
障臨界清除時間模擬結果如表 4 所示。 
 
表 4.澎湖離岸風場併入系統前後之系統故障臨界清除時間 
故障 
地點
(345kV) 
 
跳脫線路 
故障臨界清除時間(週波) 
澎湖離
岸風場
併入前 
併入澎湖離岸風場後 
風場容量 
200MW 
風場容量 
400MW 
龍潭北 龍潭北~天輪一、二回線 17.6 17.5 17.5 
嘉民 嘉民~南科一、二回線 11.4 11.3 10.7 
龍崎南 
龍崎南~興達北一回線 
龍崎南~路北一回線 
15.3 15.6 15.6 
 
由表 4 模擬結果顯示，在 2015 年台電離峰系統
下，北中南三個故障點於澎湖離岸風場併入前，於
龍潭北、嘉民及龍崎南超高壓匯流排之故障臨界清
除時間各別為 17.6 週波、11.4 週波及 15.3 週波，皆
遠大於現階段台電公司輸電系統規劃準則與再生能
源發電系統併聯技術要點規範之 4.5 週波規定，即無
暫態穩定度問題。 
但由於系統故障臨界清除時間與區域電力傳送
量及方向、系統架構有直接關係，其關係即為區域
電力傳送量愈大，該區域故障臨界清除時間愈差
[7]。然而因台澎海底電纜於台灣系統引接側口湖
161kV 為嘉民 345kV 超高壓所屬轄區內，故若在澎
湖地區各別增設容量 200MW、400MW 之澎湖離岸
風場，透過海纜將電力送回台灣系統時，將使得嘉
系統匯流排，圖中以倒正方形記號做標記。 
由圖 10 至 12 所示，就以不同離岸風場裝置容
量而言，圖中顯示大部分台電系統 345kV 匯流排發
生三相短路故障時，均造成離岸風場容量為 100MW
時跳脫，但若離岸風場容量增加為 200MW 時，較於
風場容量為 100MW，則不會因中火(北)、興達(南)
與龍崎(南)匯流排發生故障而從系統切離，但又若將
離岸風場容量擴增 2 倍至 400MW，進而又使中科、
中港、彰林、興達(北)及路北匯流排發生故障時，澎
湖離岸風場不會從系統切離。透過結果可發現若澎
湖離岸風場容量愈大時，迫使澎湖離岸風場跳脫的
故障點臨界範圍愈小。 
若以不同離岸風場低電壓穿越參數而言，在風
場未具備低電壓穿越特性時，迫使離岸風場跳脫範
圍較某 Type C 廠家建議與符合台電規範之低電壓穿
越參數時較大，其中又因台電規範之低電壓穿越參
數較某 Type C 廠家建議低電壓穿越參數嚴謹，故在
故障臨界跳脫範圍較某 Type C 廠家建議之低電壓穿
越下縮小許多。因此本文主要探討離岸風場容量為
200MW 下，在風場未含或採用某 Type C 廠家建議
之低電壓穿越參數時，造成離岸風場跳脫之故障點
仍偏多。故透過圖 12 所示，若採用符合台電規範之
低電壓穿越參數時，在故障清除時間設定為 6 週波
條件下，可使系統全 345kV 匯流排發生三相短路故
障時，澎湖離岸風場均不會從系統切離。 
因此從模擬結果亦可知，離岸風場跳脫與否跟
故障點至併接點距離有直接關係，即為離岸風場與
故障點間阻抗愈大(遠)，衝擊愈小；反之，阻抗愈小
(近)對於離岸風場衝擊愈大。另外可發現若離岸風場
容量愈小，即造成 345kV 故障點跳脫範圍擴大，合
理解釋為：離岸風場容量愈小於故障期間風場提供
給予併接點之虛功率補償較小，造成電壓降幅較
大。因此若在風場容量小情況下，要迫使故障臨界
範圍縮小，須採用更嚴謹的低電壓穿越參數。 
 
V. 澎湖離岸風場併入系統穩定度改善探討 
 本計畫澎湖離岸風場主要採用 Type C 雙饋式
感應風機所架構而成，透過先前章節模擬結果可
知，採用此型式風機之離岸風場對於系統暫態穩定
度，具有正面影響，合理解釋：為當系統發生故障
時，造成離岸風場併接點產生暫態電壓驟降衝擊，
此類型風機具備虛功調節能力可減少電壓變動幅度
與改善暫態穩定度，同時亦有助於系統更迅速回復
正常運轉特性。但在系統故障期間，可能會導致風
機之過電流或轉速上升，嚴重危害風機安全，且當
系統電壓及頻率上升或下降至某一層保護級將會導
致風場從系統切離，進而可能對系統造成二度衝擊。 
由上述可知，澎湖離岸風場採用 Type C 雙饋式
感應風機為架構時，併入系統即是對系統暫態穩定
度有正面影響，故若欲改善系統暫態穩定度，最簡
單方式即是系統故障期間，研擬適當策略使離岸風
場持續與系統併聯運轉，並適時提供虛功率補償以
助系統儘快回復穩定，避免離岸風場因保護電驛啟
動而與系統解聯。 
故本章節以 2015 年離峰系統，並以路北 345kV
匯流排發生三相短路為例。利用於 FACTS 技術中應
用較廣泛即 SVC、STATCOM 與 Battery 設備來改善
暫態電壓驟降問題。以讓故障發生期間，使澎湖離
岸風場不任意從系統切離，可持續運轉並協助系統
更快回復穩定。 
由圖 13 與 15 所示，離岸風場低電壓穿越參數
均採用某 Type C 廠家建議設定值(參閱表 2)，於路北
345kV 匯流排發生故障比較離岸風場於加入 SVC、
STATCOM 及 Battery 設備前後之併接點電壓與風機
端電壓響應。模擬結果顯示，加入 SVC、STATCOM
及 Battery 設備前，於路北 345kV 匯流排發生故障
時，離岸風場受於故障低電壓影響而從系統跳脫，
然而加入補償元件後，於系統故障期間併接點電壓
有明顯提升，使得於故障清除後離岸風場仍持續與
系統併聯運轉，其中以 STATCOM 改善效果最佳，
主要原因為如圖 15 補償設備於相同容量下之虛功率
輸出響應所示，較於 SVC 與 Battery 設備，STATCOM
針對虛功補償具較高運轉靈活度。除暫態低電壓改
善效果顯著外，並且於系統故障清除後，使系統更
迅速回復至故障前狀態。 
 
故障點：路北345kV  清除時間：6週波
澎湖P/S 161kV(併接點)電壓
0.639pu  (未加入FACTS)
0.710pu  (加入SVC)
0.733pu  (加入Battery)
0.765pu  (加入STATCOM)
 
圖 13. 澎湖離岸風場於加入 SVC、STATCOM 及 Battery          
前後之併接點電壓 
2010 INTERNATIONAL CONFERENCE ON POWER SYSTEM TECHNOLOGY, PAPER NUMBER FP1258 
 
1
  
Abstract—Wind power is expected to contribute significantly 
to the renewable energy targets owing to advancements in wind 
technologies, falling capital costs, abundance of free resource and 
commercial viability. However, it also brings into a lot of new 
challenges for the power network planning and operation. The 
predictability of wind power in managing load and generation 
balance is very important. If the fluctuations of wind were 
perfectly predictable, the additional cost of operating the system 
with a large penetration of wind power would be reduced. 
Therefore, accurate and reliable forecasting systems for wind 
power are widely recognized as a major contribution for 
increasing wind penetration. The target of this paper is to 
investigate the state-of-the-art wind power forecast technologies 
all over the world and predict wind power generated by the 
Penghu Jhong-tun wind farm. The short term and very short term 
forecasts, including ten-minute-ahead, one-hour-ahead, and 
one-day-ahead predictions, have been taken into account 
respectively. This prediction module will be developed with 
statistical models and Artificial Intelligence (AI) technologies 
respectively to capture the relations between input variables, i.e., 
online measurement data and numerical weather prediction 
(NWP) based on meteorological information, and the output 
valuable, such as future total wind farm power. Furthermore, the 
significance of NWP values on wind power forecasting has been 
highlighted in this paper by using a real example at the Penghu 
Jhong-tun wind farm. 
Index Terms—Wind power, Forecast technologies, Penghu 
wind farm, statistical models, AI technologies 
I. INTRODUCTION 
he variable pattern of wind power changes the scheduling 
of the other plants and the use of transmission capacity 
between regions. When the wind fluctuation is not predicted, it 
is necessary to use extra reserves, generally expensive backup 
generators in low efficient states, in order to quickly 
compensate the unbalance between generation and load. Wind 
power prediction systems provide the information how much 
wind power can be expected at which point of time in the next 
few days, hours, or minutes. In countries having a high 
penetration of wind energy in the electrical grid, in particular 
Denmark, Spain, Germany, and Taiwan Penghu, wind power 
prediction tools turned out to be indispensable for the energy 
industry. In recent years, different short-term wind power 
forecasting models have been developed using physical, 
 
Yuan-Kang, Wu is with the National Penghu University, Penghu 880, 
Taiwan (corresponding author e-mail: yk.wu@npu.edu.tw).  
Ching-Yin Lee is with the Department of Electrical Engineering, Tungnan 
University, Taipei 22202, Taiwan (e-mail: cylee@mail.tnu.edu.tw) 
statistical approaches, or even a combination of both 
approaches：the physical approach attempts to estimate local 
wind speed using physical laws governing atmospheric 
behaviour, and then the corresponding power generated at the 
wind farm; the statistical approach aims to determine the 
relationship between a set of explanatory variables and the 
power generated at the wind farm using historical data. In the 
statistical approach, short term wind power forecasting 
employs mathematical models to predict the power produced 
by a wind farm during a look-ahead time, and the forecasted 
value is based on the last known data for power production, 
wind speed or wind direction. 
Different research groups have developed wind power 
forecasting systems using input values forecasted by a NWP 
model such as the Danish Prediktor model[1] and WPPT 
model[2], the Spanish Sipreolico model[3] and CENER’s 
LocalPred model[4], the German Previento model[5] and ISET 
WPMS model[6], the French Armines AWPPS model[7], the 
Greek National Technical University of Athens (NTUA) 
model[8] and the Aristotle University of Thessaloniki (AUTH) 
model [9], the North American eWind model [10], and the 
Canada SAGIPE model. An interesting review about the 
development of wind power short-term predictions tools can be 
found in Reference [11]. Among the above forecasting tools, 
one very prominent example is the WPPT model by the Danish 
Technical University, which has been working operationally at 
the Danish TSO Eltra for many years. This system uses 
autoregressive statistical methods to determine the predictions. 
Under this approach the power production is described as a 
nonlinear and time-varying stochastic process. Another 
example is the system developed by ISET, which provides 
forecasts for a number of German TSOs. This system works on 
artificial neural networks (ANN) which are trained with either 
historical wind farm data or measurements from transformer 
stations where a number of wind farms are connected. In 
addition, the system provides an online estimation of the wind 
power that is currently fed into the electrical grid based on 
extrapolating measurements at representative wind farms. 
In addition to forecast modeling techniques, another 
important aspect for wind power forecasting is the data 
acquisition. As the prediction accuracy would closely relate to 
many factors, such as air temperature, pressure, wind 
orientation, humidity, season, and geographic positions. There 
are many kinds of sensors equipped in the wind generators. In a 
wind farm there are tens even to hundreds of distributed wind 
Actual Experience on the Short-Term Wind Power 
Forecasting at Penghu – from an Island Perspective 
Yuan-Kang, Wu, Member, IEEE, Ching-Ying, Lee 
T
2010 INTERNATIONAL CONFERENCE ON POWER SYSTEM TECHNOLOGY, PAPER NUMBER FP1258 
 
3
compared it with the multilayer perceptron neural networks. 
The results proved that the SVM model had less root mean 
square errors than MLP model. Reference [14] did further 
research on SVM; a support vector classifier was utilized to 
estimate the forecasting error. The results indicated that lower 
mean square error and mean absolute percentage error than 
traditional SVM method were obtained.  
Some research works [15] applied the wavelets technique to 
pre-filter the input data and investigate if this procedure 
enhances the forecasting results. With this operation it is 
intended to filter the non-periodic input time series. The 
developed methodology executes the MRA analysis of the time 
series for a certain approximation level, and then uses the 
smooth as an input for the statistical ARMA forecast models. 
Reference [16] proposed a new integrated method utilizing 
Wavelet-based networks and Particle Swarm Optimization 
(PSO) forecasting for very short wind speed prediction, where 
the PSO algorithm is applied for training a Wavelet networks. 
The proposed approach was compared to multi layer perceptron 
networks with BP training algorithm. Results show that the new 
approach improved forecasting accuracy. 
One of the most discussed challenges of integrating wind 
energy into power systems is wind power production variability. 
Reference [17] presented a new approach to wind power 
reliability estimation that models the effect of temperature on 
the evolution of wind speed and produces wind-speed 
probability densities that closely resemble actual wind-speed 
time series. However, it appears that the specific shape of the 
wind-speed distribution has relatively little impact on model 
outcome. [17] also mentioned that modeling wind direction for 
reliability estimation could become an interesting area of future 
research if eventually array loss functions can be inserted into 
model types employed here. 
Forecasts of wind power output are traditionally provided in 
the form of point forecasts. In [18], however, a generic method 
for the providing of prediction intervals of wind power 
generation was described. Prediction intervals complement the 
more common wind power point forecasts, by giving a range of 
potential outcomes for a given probability. In order to avoid a 
restrictive assumption on the shape of forecast error 
distributions, focus is given to an empirical and nonparametric 
approach.  
Forecasted output of wind electric generators has large 
uncertainties. These uncertainties pose a challenge while 
computing optimal bids necessary for participating in the 
day-ahead unit commitment process of an electricity market. 
Recent advances in electric energy storage technologies 
provide an opportunity of using energy storage to address the 
wind energy intermittency [19]. Reference [19] proposed an 
optimal control method and a real-time implementation scheme 
using model predictive control for a BESS to be integrated with 
a wind farm, so that the wind farm can be dispatched on an 
hourly basis like a conventional generator. Reference [20] 
proposed a new optimal participation strategy for a wind 
generator that employs an energy storage device for 
participating in the market. In [20], the multi-objective mixed 
integer linear programming formulation was transformed into a 
fuzzy optimization problem and solved. The research results 
have shown that the energy storage device could help to shift 
wind energy produced during hours with low marginal prices to 
those hours with higher marginal prices by appropriately 
storing and releasing it.  
The accurate comparison of all the above methods is quite 
difficult because these methods depend on different situations, 
and the data collection is a formidable task. Some research 
works has concentrated on associating uncertainty estimates to 
point forecasts. It seems that low quality forecasts of wind 
generation are partly due to the power prediction model, and 
partly to the NWP systems. During some periods weather 
dynamics can be relatively more predictable, while at some 
other point in time they may prove to be unpredictable, and this 
regardless of the forecasting method employed. 
III. WIND SPEED DATA AT PENGHU AREA  
The objective of this paper is to develop AI and statistical 
models to forecast wind generation output with a 10-min, 
1-hour, and 1-day time step respectively. The available data in 
this paper is an aggregated generation from the entire wind 
farm in Penghu, Taiwan and the weather information from a 
nearby weather site. The study wind farm, i.e., Jhong-tun wind 
farm, consists of 8 wind turbines, each rated at 0.6 MW. As 
expected, the wind speed and power generation output has a 
consistently high correlation close to one for the whole study 
period. It is observed that there is no consistent correlation 
between power and wind direction (or temperature) in our 
study case. All data used in this paper were recorded as an 
average over a 10-min interval. The aggregated power output is 
available for the entire wind farm while the wind speed comes 
from an average of all measured values at each wind turbine 
hub. Fig. 1 shows the typical yearly wind energy distribution at 
Penghu. It is clear that higher wind speed occurs in winters.   
 
Fig. 1 Typical wind energy distribution at Penghu area 
 
In order to evaluate the possibility and potential of short term 
wind power forecasting in Taiwan, the measured data for wind 
2010 INTERNATIONAL CONFERENCE ON POWER SYSTEM TECHNOLOGY, PAPER NUMBER FP1258 
 
5
2
1
1 ∑
= ⎟
⎟
⎠
⎞
⎜⎜⎝
⎛ −=
N
n install
forecastmeasure
P
PP
N
NRMSE            (2) 
∑ −=
N install
measureforecast
P
PP
N
NMAPE 1                       (3) 
In this paper, the NRMSE was utilized as the index to 
evaluate the performance of forecasting models. In addition, 
aggregated wind power forecasting for a group of wind 
turbines was adopted, which may be easier to manage and 
provide some inherent error cancellation.  
A. One Day Ahead Forecasting 
This paper presents six-month data to train the ANN network 
with different network structures, and then evaluates the 
forecast performance using testing data. Table I shows the 
forecasting results by using ANN models, where ws denotes 
wind speed measurement; p indicates wind power measurement; 
f means the wind speed prediction from the NWP model. It is 
obvious that the forecasting wind speed from NWP models and 
wind power measurement at the previous day would affect 
highly the forecasting accuracy; on the contrary, the effect of 
historical wind speed measurements would be ignored. The 
ANN network 1 yields the best performance. This model uses 
wind speed NWP forecast and the latest wind power generation 
as inputs. 
Based on our forecasting experience, the NWP forecasting 
value would play the most important role on the wind power 
forecasting. In addition to ANN models, other forecasting 
methods have also been utilized to predict the one-day-ahead 
power and the results were shown in Table II, where “e” 
denotes the forecasting error (the MA model) and the definition 
of variable p and f is identical to that in Table I. From Table II, 
the worst case is to use the ARIMA model. It is reasonable 
because the ARIMA model only considers single variable, i.e., 
historical wind power data and ignores significant exogenous 
variables such as wind speed data. In this study, the 
performance of ANFIS is the best, which could accurately 
forecast the wind power generation of the study wind farm. 
 
TABLE I 
OND-DAY-AHEAD WIDN ENERGY FORECASTING USING ANN MODELS  
ANN 
Network 
ID 
Input parameter Forecast error (NRMSE, %) 
ws 
(t-1) 
ws 
(t-2) 
p 
(t-1) 
p 
(t-2) 
f(t) Dec.2
009 
May 
2010 
Avg. 
1   x  x 4.27 8.13 6.20 
2 x  x  x 4.46 7.92 6.19 
3 x x x  x 5.79 8.38 7.09 
4 x  x x x 5.42 8.74 7.08 
5 x x x x x 6.01 8.81 7.41 
 
TABLE II 
OND-DAY-AHEAD WIDN ENERGY FORECASTING BASED ON DIFFERENT METHODS  
 
Forecasting 
model 
 
Input 
parameter 
Forecast error 
(NRMSE, %) 
Dec. 
2009 
May 
2010 
Avg. 
ANN f(t), p(t-1) 4.27 8.13 6.20 
ANFIS f(t), p(t-1) 2.26 3.93 3.10 
ARIMA p(t-1), 
p(t-2),p(t-3), 
6.13 10.76 8.45 
e(t-1),e(t-2) 
ARIMAX p(t-1), p(t-2), f(t), 
f(t-1), f(t-2), e(t-1)
2.68 4.01 3.35 
B. One Hour Ahead Forecasting 
Table III shows the forecasting results by using ANN models 
with different inputs. Similar to the one-day-ahead prediction, 
forecasting wind speed from the NWP model and wind power 
measurements at the previous hour would affect highly the 
forecasting accuracy; on the contrary, the effect of historical 
wind speed measurements would be ignored. The ANN 
network 1 yields the best performance. This model uses wind 
speed NWP forecast and the latest wind power generation as 
inputs. In addition to ANN models, other forecasting methods 
have also been utilized to predict the one-hour-ahead power 
and the results are shown in Table IV, where the definition of 
variable p, f, and e is identical to that in Table II. From Table IV, 
the worst case is to use the ARIMA model. In this case, the 
performance of ANFIS is the best, which could accurately 
forecast the wind power generation of the study wind farm. The 
forecasting result by using ANFIS is shown in Fig. 2, where the 
solid line and the dotted line denote the actual and forecasting 
wind power curves respectively. In Table IV, the ARIMAX 
model is represented as equation (4).  
 
TABLE III 
OND-HOUR-AHEAD WIDN ENERGY FORECASTING USING ANN MODELS  
ANN 
Network 
ID 
Input parameter Forecast error (NRMSE, %) 
ws 
(t-1)
ws 
(t-2)
p 
(t-1)
P 
(t-2) 
f(t) Dec.2
009 
May 
2010 
Avg. 
1   x  x 4.13 5.92 5.03 
2 x  x  x 4.08 6.06 5.07 
3 x x x  x 4.21 6.11 5.16 
4 x  x x x 4.20 6.18 5.19 
5 x x x x x 4.57 6.45 5.51 
 
TABLE IV 
OND-HOUR-AHEAD WIDN POWER FORECASTING BASED ON DIFFERENT METHODS  
 
Forecasting 
model 
 
Input 
Parameter 
Forecast error 
(NRMSE, %) 
Dec. 
2009 
May 
2010 
Avg. 
ANN f(t), p(t-1) 4.13 5.92 5.03 
ANFIS f(t), p(t-1) 1.95 2.73 2.34 
ARIMA p(t-1), 
p(t-2),p(t-3), 
p(t-4), p(t-5) 
e(t-1),e(t-2) 
5.31 6.94 6.13 
ARIMAX p(t-1), p(t-2), 
p(t-3), p(t-4), 
p(t-5), f(t), f(t-1), 
f(t-2), f(t-3) 
e(t-1), e(t-2) 
2.39 3.56 2.98 
 ( ) ( ) ( ) ( )
( ) ( ) ( )
( ) ( ) ( )
( ) ( ) 55.0205.015.0
35.24267.2218.66
2.57950031.04034.0
3066.0233.0164.0
−−+−−
−+−+−+
−−−−−
−+−+−=
tete
twstwstws
twstPtP
tPtPtPtP
         (4) 
 
2010 INTERNATIONAL CONFERENCE ON POWER SYSTEM TECHNOLOGY, PAPER NUMBER FP1258 
 
7
VI. EFFECTS OF NWP PREDICTIONS ON WIND POWER 
FORECASTING 
 
Based on the results of the previous section, wind power 
forecasts with single variable, i.e., historical wind power, 
would result in lower prediction accuracy. Furthermore, the 
NWP predictions would have a significant effect on the wind 
power forecasting if the change on the dynamic wind power 
curve (x axis: wind speed, y axis: wind power) is not large 
within a specific period. Fig. 5 shows the forecasting results 
based on four kinds of methods, where the developed ANN and 
ARIMA models do not include the NWP inputs, but the ANFIS 
and ARIMAX models take the NWP input into account. It is 
found that the forecasting errors based on the ANN and 
ARIMA are much higher than that based on the ANFIS and 
ARIMAX because the latter methods add the NWP values as 
input.  
 
 
Fig. 5 Comparison of four forecasting methods with or without NWP inputs 
 
 
VII. CONCLUSION 
One of the fundamental problems faced by power system 
operators is the variability and non–schedulable nature of wind 
farm power generation. These inherent characteristics of wind 
power have both technical and commercial implications for 
efficient planning and operation of power systems. Due to 
increasing wind power penetration, the need for wind power 
prediction system has increased during the last 5 or 10 years. 
This paper has presented four different models to predict 
short-term wind generation at a small –scale wind farm. The 
lead time of wind power forecasts in this paper includes ten 
minutes, one hour, and one day respectively. Based on the 
research results, wind power variation remarkably matches that 
of wind speed so that the forecasting wind speed from the NWP 
model has to be considered in the forecasting model.  
ACKNOWLEDGMENT 
This work was supported in part by the NSC under the 
Project Title: Study on wind power forecasting technologies 
and its economic benefit evaluation at Penghu, Project No: 
98-2221-E-346-007-.  
REFERENCES 
[1] Landberg L. “Short-term prediction of local wind conditions,” Journal of 
Wind Engineering and Industrial Aerodynamics, 89, 2001, pp.235–245. 
[2] Nielsen TS, Madsen H. “WPPT – a tool for wind power prediction.”  
Wind power for the 21st Century, Kassel, Germany, 2000, pp. 25–7. 
[3] Sa ＇ nchez I. “Short-term prediction of wind energy production,” 
International Journal of Forecasting 22, 2006, pp.43–56. 
[4] Marti I, et al. “Wind power prediction in complex Terrain: from the 
synoptic scale to the local scale,” Science of making torque from wind, 
Delft, The Netherlands; 2004. 
[5] Focken U, Lange M, Mo‥nnich K, Waldl HP, Beyer HG, Luig A. 
“Short-term prediction of the aggregated power output of wind farms - a 
statistical analysis of the reduction of the prediction error by spatial 
smoothing effects,” Journal of Wind Engineering and Industrial 
Aerodynamics, 90, 2002, pp.231–246. 
[6] Rohrig K, Hoppe-Kilpper M, Ernst B, Schlol F. “Online-monitoring and 