KV bus (H5817) are selected as the locations for 
multi-connection method. PSS/E 29 is adopted as the 
simulation tool, and the Taipower Distribution System 
Planning Guidelines and the Technical Rules of 
Renewable Energy Generation Connected to Taipower 
Transmission and Distribution System have been 
consulted for performing various simulations, 
analyses, and evaluations and for verifying the 
simulation results. Main issues analyzed and 
simulated include: steady-state power flow, transient 
stability, the critical range of the tripping of the 
wind farm caused by bus fault, and the impact of 
critical fault clearance time on the power system.  
The total capacity of wind farm is 864 MW,  
connection to system after and show results of 
simulation: analysis of steady state flow, the 
single-connection method has two line does not meet 
standard has two line, is worst； the tripping 
critical range of accident and the separate-
connection method is worst； In aspect of fault 
critical clearing time, if power flow of line was 
Reversed, tripping inflow the line that critical 
clearing time will be longer outflow the line, 
because tripping inflow the line can be through the 
fault bus that flow be decrease； if line of power 
flow was obverse, in accordance with power 
transmission capacity size as compared, Long critical 
clearing time was the small size, simulation results 
are more than twice the reference value standard of 
Taipower, the mean is Taiwan power system is very 
strong. 
英文關鍵詞： Large-scale offshore wind farms, single-connection 
method, separate-connection method, multi-connection 
method, power system simulator for engineering. 
 
2 
 
摘要 
本文以彰化外海建置大型離岸風場為例，其總裝置容量假設為
864 MW採型態 C之風機裝置而成(單機容量為 3.6 MW)，且以台電
公司西元 2015 年系統為研究標的，探討電力系統與離岸風場之併接
方法設計：(一)選擇 161 kV匯流排線西 H(5801)為併接位置且系統與
風場間採集中式併入法(Single-Connection Method)；(二)選擇 161 kV
匯流排線西 H(5801)與漢寶 H(5817)為併接位置且系統與風場間採分
散式併入法(Separate-Connection Method)；(三)選擇 161 kV匯流排線
西 H(5801)與漢寶 H(5817)為併接位置且系統與風場間採多併接點併
入法(Multi-Connection Method)。採用電力系統模擬軟體 PSS/E 29版
作為模擬工具，且依據台灣電力公司之「輸電系統規劃準則」與「再
生能源發電系統併聯技術要點」規範進行各方面的模擬分析評估與檢
驗模擬結果，模擬案例分析包括：穩態電力潮流分析、暫態穩定度分
析、匯流排故障造成風場與系統解聯之臨界跳脫範圍以及臨界清除時
間等對系統之衝擊。 
風場總容量 864 MW併入系統後之模擬結果顯示：穩態電力潮流
分析，集中式併入法有 2條線路不符合規範，為最差；故障臨界跳脫
範圍以分散式併接點為最差；故障臨界清除時間方面，若線路的電力
流向為異向，則跳脫流入之線路其臨界清除時間將比流出之線路還要
大，因為跳脫流入之線路會使得流經故障端匯流排之流量減少；若線
路的電力流向為同向，則依照電力傳送量大小作為比較，傳送量小者
臨界清除時間大，模擬結果皆超過台電規範參考值兩倍，表示台灣電
力系統非常強健。 
 
關鍵詞：大型離岸風場、集中式併入法、分散式併入法、多併接點併
入法、電力系統模擬軟體。 
  
4 
 
 
一、前言 
有鑒於能源消耗快速、空氣污染與溫室效應等問題，世界先進工
業國家在西元 1997 年於日本簽定《京都議定書》(Kyoto Protocol)，
達成溫室氣體減排之決議，此更加速世界各國對於再生能源之推展，
不過《京都議定書》的減排協議將於西元 2012 年屆滿，所以《聯合
國氣候變化框架公約》在西元 2007 年於峇里島訂下為期兩年的談判
計劃，於西元 2009年 12月舉行哥本哈根會議，決定西元 2012至 2017
年全球減排協議。根據全球風能協會(Global Wind Energy Council, 
GWEC)風力統計資料顯示[1]，如圖 1.1所示，截至西元 2011年 6月
底，全球風力發電總裝置容量為 215 GW，西元 2011 年半年風力裝
置容量增加了 15.2 GW，西元 2011年 6月底風力發電總裝置容量前
10名之國家以歐洲國家過半數最多，但中國以總裝置容量為 52.8 GW
成為世界之冠，其後依序為美國(42.432 GW)、德國(27.981 GW)、西
班牙(21.15 GW)、印度(14.55 GW)等國家。至今風力發電之發展已由
岸上建置轉至海上開發，主因土地有限、取得不易以及陸岸上地形高
低起伏使風量不穩定等條件限制，世界各國紛紛在海域上開發離岸的
風場，而隨著單機容量的增加與大型容量風場的建置併入系統，勢必
對鄰近電力系統之潮流帶來可觀的注入，即有可能造成現有線路滿載，
或者既有設備容量不足以應付滿載發電之風場帶來之衝擊影響，所以
仔細考量風場的建置位置與安排極為重要，且離岸風場的建置若一處
風場就使用一獨立傳輸系統，經濟層面上這是一大開銷，如歐洲北海
海域的零星風場，且一般離岸風場所發電力就僅往岸上傳送，若整合
成海上電網(Offshore Grid)則風場間可以支援彼此，風力發電可以互
相彌補不足，以維持穩定電力系統之用電需求。 
6 
 
之一。 
風力發電成本大幅下降，相較於傳統發電機組已具有競爭力，符
合大力推廣之條件，而台電公司於西元 2002 年擬定「風力發電十年
發展計畫」，規劃於台灣西部沿海風能資源豐富地區優先辦理，以十
年內設置 200台風力發電機或總裝置容量 300MW以上為目標。此計
畫分成三期逐一完成，「風力發電第一期計畫」於西元 2002年 7月
11日奉准興辦，已於西元 2008年 12月 31日全部完工，並且西元 2009
年 1月全部商轉，此部份合計設置 60台風力發電機組，分佈於核一、
核三、桃園大潭與台中等電廠區域範圍，以及桃園大園觀音、新竹香
山，與台中港區間之濱海防風林等風能優渥地區，總裝置容量為
98.96MW，預估年發電量為 269.1GWh。「風力發電第二期計畫」於
西元 2004年 4月 9日奉准興辦，此部份合計設置 58台風力發電機組，
其中彰工線西、彰工崙尾以及雲林麥寮已完工且商轉，剩下台北林口
與雲林四湖目前還在施工中，而第二期計畫總裝置容量為 116MW，
預估年發電量約為 335.5GWh。「風力發電第三期計畫」於西元 2006
年 4月 24日奉准興辦，此部份合計設置 36台風力發電機組，預定於
彰工線西、彰化王功、桃園大潭以及雲林麥寮等地區興建，根據西元
2011年 5月之台電公司工程進度報告，彰工線西(Ⅱ)、雲林麥寮(Ⅱ)、
金門金沙、彰化王功與大潭(Ⅱ)皆完工，澎湖湖西已正式併聯運轉，
而第三期計畫總裝置容量為 69MW，預估年發電量約為 174GWh。目
前民營風力總裝置容量為 222.3 MW，分佈於新竹竹南、彰化鹿港等
地區。[3] 
二、研究目的 
在陸上設置風場藉此取代傳統發電機組的方式，會因為土地有限、
取得不易與陸岸上的風不穩定等條件限制下，促使風場開始往離岸的
形式尋求發展。離岸的風場將比較不會有上述的各種限制，而且風的
品質要比陸上來的穩定許多，這可以使風機發出來的電能更為穩定，
故離岸風場的選址與開發規劃重要性提高。 
本文以彰化離岸風場為例，建置總裝置容量為 864 MW之大型離
岸風場，探討風場併入電力系統所帶來之衝擊影響，並且比較各種併
接架構分析其優劣，從中歸納各種併接架構的特性，本文貢獻可供給
電力公司或相關人員參考，文中使用電力系統模擬軟體(Power System 
Simulator for Engineering, PSS/E) 29版進行模擬分析，模擬系統為台
電公司西元 2015 年系統，模擬項目針對探討離岸風場併入系統的穩
態系統潮流、系統暫態穩定度、臨界清除時間分析以及系統故障造成
風場解聯範圍等模擬分析，比較分析離岸風場併入 161kV 電壓等級
且搭配各種設計併接方式之差異，以下介紹 161 kV傳輸系統之三種
8 
 
 
圖 2.3  電力系統與離岸風場之設計方案三「多併接點併入法」示意圖 
 
三、文獻探討 
國內外學者已有不少研究文獻針對風場併入系統之衝擊分析，其
中探討方向主要為穩態潮流分析、暫態穩定度分析、臨界清除範圍及
時間問題。相關文獻整理如下： 
論文[4]使用 PSS/E 29版進行模擬分析，且風力發電機模型採用
Vestas V80(單機容量 1.8MW)型號，針對西元 2010年彰濱離岸風場併
入台電系統模擬方面，風場主要是由 60 台風機所構成，模擬項目有
電力潮流、短路電流、偶發事故、暫態穩定度模擬等，從模擬結果可
知，風場併入系統後會從系統上吸收虛功率，進而造成系統電壓些微
下降，主因為 V80 並沒有配備電力電子補償設備，也未具有低電壓
忍受能力，因此，若系統電壓過低而風場仍未被切離，將可能造成風
機損毀。 
論文[5]採用 PSS/E 29版為分析工具，配合軟體內建之 GE 3600
型風力發電機模型架構下操作，且風機本身具備電壓控制與功率因數
控制模式，模擬台電公司西元 2010 年彰濱 108MW 大型離岸風場併
入系統前後觀察與系統尖峰和離峰之響應，其暫態模擬包含台灣系統
北、中、南及責任分界點轄區內 345 kV系統和 161 kV系統之三相短
路故障與責任分界點轄區內跳一回線故障，提出責任分界點為圓心於
三相短路故障下影響風場切離之區域統計分析。規劃系統負載潮流之
初，可選擇控制模式用以調節系統上虛功率，若系統發生暫態故障皆
會穩定其系統之電壓波動，因系統於離峰時系統部分傳統發電機未投
入運轉，故使風力發電於整個電力系統中的佔比提高，使得風力發電
影響節點電壓更為明顯。 
論文[6]針對台灣電力公司計畫將於彰濱工業區外海設置離岸風
場，預計將設置 148部 3.6 MW風力機，文章以 PSS/E建立離岸風場
10 
 
感應發電機（Doubly Fed Induction Generator, DFIG）對電壓穩定度之
衝擊方面，由於電能經變流器轉換，故裝有變流器驅動之風機，其發
電機端可控制電壓，外部電壓控制器亦可增加電力系統之暫態穩定度
裕度，所以當使用自動電壓調整器除增加暫態穩定度外，也可使感應
發電機占比提高且不致失去系統穩定度。 
K. L. Lo等學者[9]探討不同風場容量(50 MW、100 MW與 150 
MW)併入一個電力系統(電壓等級為 13.8 kV)，模擬分析系統穩態時
於風速變動下，風場對系統所造成之衝擊影響。文中假定系統之總負
載量為 1000 MW，其備載機組容量為 1000MW之傳統同步發電機，
而風場是由單機容量 1.5 MW 之風力發電機所構成，模擬分析以 24
小時為一週期，觀察風速變動下，風場與傳統同步發電機之功率輸出
情況，是否因為風速變動或系統發生故障，造成傳統同步發電機之定
子電流及轉子電流增大，而使得發電機保護設備損壞。分析結果如下：
(一)風速變動時會造成風場不穩定的實功率輸出，此時傳統同步發電
機轉子電路上的激磁電流會增加，讓實功率輸出隨之增加，補足風場
減少之實功率；(二)為補其風場因風速變動所造成實功率輸出的變動，
也因此傳統同步發電機轉子必須忽快忽慢，進而造成發電機內部溫度
飆升；(三)風場占系統發電量比例越大，對傳統同步發電機之絕緣保
護影響越大。 
D. Huertas-Hernando等學者[10]探討歐洲北海的離岸風場規劃，
積極開發之下在西元 2030 年於北海上可能存在著許多風場，且各風
場的連接線路將電力傳至岸上，為了整體的市場性與經濟性，未來風
場的傳輸線路規劃可採網狀結構，傳輸線路共用情況下可以節省經濟
開銷，此稱為離岸電網(Offshore Grid)。文章內採用了兩套工具演算
離岸電網的結構：電力系統模擬工具(Power System Simulation Tool, 
PSST)與 Net-Op，且分析系統假設差異包括：(一) PSST考慮陸岸電
網一併規劃離岸電網；Net-Op則無。(二) PSST考慮離陸地近的海上
風場；Net-Op則無。(三) PSST不考慮損失；Net-Op考慮高壓直流傳
輸線與變電站損失。研究之標的為西元 2030 年海上風力總裝置容量
達 120GW，經濟面分析比較結果：(一) PSST分析工具結果，未規劃
與規劃後之營運成本(Operational Costs)為 74550.8與 74443.6百萬歐
元，差額為 107.2百萬歐元。投資成本(Investment Costs)為 8283.2與
7279.4 百萬歐元，差額為 1003.8 百萬歐元。利潤(Benefit)為 2651.7
百萬歐元。(二) Net-Op 分析工具結果，未規劃與規劃後之營運成本
(Operational Costs)為 32357.56 與 32519.10 百萬歐元，差額為 18.46
百萬歐元。利潤(Benefit)為 1287.7百萬歐元。 
 
12 
 
北
線西
草港
彰濱
漢寶
福興
鹿東
台鹿
彰化
鹿西
星彰
星元
IPP
IPP
核三
龍崎
中寮
龍潭
高港
 
圖 4.1  台電公司彰濱超高壓轄區電力系統圖 
 
 
圖 4.2  彰濱超高壓轄區之 161 kV輸電線圖 
 
4.1.2 本研究使用風機之介紹 
本文使用型態 C 之風機且屬雙饋式感應發電機，其額定輸出實
功率為 3.6 MW、切入風速為 3.5 m/s、額定風速為 14 m/s、切出風速
為 27 m/s以及額定電壓為 4.16 kV，詳細資料可參考與表 4.2。 
 
表 4.2  本文使用風機基本資料 
項目 
切入 
風速 
切出 
風速 
額定 
風速 
額定 
電壓 
額定 
功率 
最大 
虛功率 
最小 
虛功率 
雙饋式 
感應發電機 
3.5  
m/s 
27  
m/s 
14  
m/s 
4.16  
kV 
3.6  
MW 
2.08 
MVAr 
-1.70 
MVAr 
 
另外，本文使用之風機於穩態時有兩種運轉模式運轉：電壓控制
與功率因數控制，可依照系統之需求由使用者自行選擇。其電壓控制
運轉模式為風機於穩態運轉期間端電壓可依使用者設定，如台灣電力
14 
 
 減少可能連續性跳脫事故、系統崩潰機率。 
 改善系統可用電力與增加可靠度。 
 防止網路某些線路過載。 
 可以符合系統備轉能力需求。 
本文保護電驛詳細設定如表 4.3與表 4.4所示，低電壓保護電驛
依據台灣電力公司再生能源發電系統併聯技術要點之規定，但由於程
式設定上無法定義斜直線，故採以階梯狀之方法設定，並且秒數設定
皆依照規範。 
 
表 4.3  本文風力機組電壓保護電驛設定資料 
電壓電驛範圍(pu) 偵測時間(s) 電壓電驛範圍(pu) 偵測時間(s) 
0≦V<0.15 跳脫 0.6≦V<0.65 2.167 
0.15≦V<0.2 0.667 0.65≦V<0.7 2.333 
0.2≦V<0.25 0.833 0.7≦V<0.75 2.500 
0.25≦V<0.3 1.000 0.75≦V<0.8 2.667 
0.3≦V<0.35 1.167 0.8≦V<0.85 2.833 
0.35≦V<0.4 1.333 0.85≦V<0.9 3.000 
0.4≦V<0.45 1.500 0.9≦V<1.1 正常運轉 
0.45≦V<0.5 1.667 1.1≦V<1.15 1 
0.5≦V<0.55 1.833 1.15≦V<1.3 0.1 
0.55≦V<0.6 2.000 1.3≦V 0.02 
 
表 4.4  本文風力機組頻率保護電驛設定資料 
頻率電驛範圍(Hz) 偵測時間(s) 
f<56.5 0.02 
56.5≦f<57.5 10 
57.5≦f<61.5 正常運轉 
61.5≦f<62.5 30 
62.5≦f 0.02 
 
4.1.4 彰化離岸風場之規劃案例 
本節說明選用 161 kV等級匯流排作為併接點之彰化離岸風場規
劃案例，集中式併入法以線西 H(5801)為併接點，分散式併入法分別
以線西 H(5801)與漢寶 H(5817)為併接點，風場併入過程兩個併接點
併入等同容量，多併接點併入法以線西 H(5801)與漢寶 H(5817)為共
用併接點。如表 4.5所示為整理各階段併入之風場容量，表 4.6所示
為整理各種設計方案與併接點位置。 
 
表 4.5  彰濱離岸風場之各階段容量分配表 
階段 併入風場容量 累計總風場容量 
階段 0 0 MW 0 MW 
階段 1 216 MW 216 MW 
16 
 
線路 1 彰濱 E(2300) 中火南 E(540) 第一回線 2182.3 
線路 2 彰濱 E(2300) 彰工北 E(550) 第一回線 2182.3 
線路 3 彰濱 E(2300) 全興 E(2350) 第一回線 2182.3 
線路 4 彰化 H(3551) 福興 H(5855) 第一回線 538.0 
線路 5 福興 H(5855) 漢寶 H(5817) 第一回線 538.0 
線路 6 福興 H(5855) 草港分岐 H(7710) 第一回線 499.7 
線路 7 漢寶 H(5817) 草港分岐 H(7711) 第一回線 499.7 
線路 8 草港分岐 H(7710) 彰濱 H(2301) 第一回線 499.7 
線路 9 草港分岐 H(7710) 草港 H(5819) 第一回線 499.7 
線路 10 草港分岐 H(7711) 彰濱 H(2301) 第一回線 499.7 
線路 11 草港分岐 H(7711) 草港 H(5819) 第一回線 499.7 
線路 12 彰濱 H(2301) 線西 H(5801) 第一回線 567.2 
線路 13 彰濱 H(2301) 鹿東 H(5809) 第 R回線 500.0 
線路 14 彰濱 H(2301) 鹿東 H(5809) 第W回線 500.0 
線路 15 彰濱 H(2301) 星彰 H(9240) 第 R回線 652.5 
線路 16 彰濱 H(2301) 星彰 H(9240) 第W回線 652.5 
線路 17 彰濱 H(2301) 星元 H(9250) 第一回線 652.0 
線路 18 鹿東 H(5809) 鹿西 H(5811) 第一回線 567.2 
註：R為紅線，W為白線，此為台電公司線路代號表示方式之一。 
 
4.2.1.1 風場採集中式併入法與台電系統連接之模擬結果 
正常系統模擬結果，當階段 1至階段 4的風場接續併網時，彰濱
超高壓轄區每一條線路之載流率結果，其歸納出以下之結論： 
1. 離峰情況下，階段 4 之風場完全併入後，此時總風場容量為 864 
MW，載流率最高之線路為彰濱H(2301)至線西H(5801)第一回線，
其值為 75.51%，整體而言，未有線路超出額定容量的百分之百。 
2. 尖峰情況下，階段 4 之風場完全併入後，此時總風場容量為 864 
MW，僅福興 H(5855)至草港分岐 H(7710)第一回線以及草港分岐
H(7710)至彰濱 H(2301)第一回線之載流率不符合相關規範，其值
各為 125.33%與 120.12%。 
偶發事故模擬分析，當階段 1至階段 4的風場接續併網時，彰濱
超高壓轄區每一條線路之載流率結果，其歸納出以下之結論： 
1. 離峰情況下，停用或檢修任一線路此時轄區內線路之載流率皆能
符合相關之規範。 
2. 尖峰系統下，階段 4 之風場完全併入後，此時風場總容量為 864 
MW，有 2 種偶發事故案例必須避免在尖峰情況發生，其中最為
嚴重之事故為當線路草港分岐 H(7710)至彰濱 H(2301)第一回線
停用時，將使得線路草港分岐 H(7711)至彰濱 H(2301)第一回線之
載流率達 187.91%。 
 
 
18 
 
草港分岐 H(7711) 彰濱 H(2301) 1 126.78% 125.82% 124.79% 123.71% 
線路 10停用或檢修之情況 
草港分岐 H(7711) 彰濱 H(2301) 1 停用或檢修 
草港分岐 H(7710) 彰濱 H(2301) 1 132.83% 132.61% 132.32% 131.98% 
 
4.2.1.3風場採多併接點併入法與台電系統連接之模擬結果 
正常系統模擬結果，當階段 1至階段 4的風場接續併網時，彰濱
超高壓轄區每一條線路之載流率結果，其歸納出以下之結論： 
離峰情況下，階段 4之風場完全併入後，此時總風場容量為 864 
MW，載流率最高之線路為福興 H(5855)至漢寶 H(5817)第一回線，其
值為 67.96%，整體而言，未有線路超出額定容量的百分之百。 
尖峰情況下，階段 4之風場完全併入後，此時總風場容量為 864 
MW，僅福興 H(5855)至漢寶 H(5817)第一回線之載流率不符合相關規
範，其值為 115.82%。 
偶發事故模擬分析，當階段 1至階段 4的風場接續併網時，彰濱
超高壓轄區每一條線路之載流率結果，其歸納出以下之結論： 
1. 離峰情況下，停用或檢修任一線路此時轄區內線路之載流率皆能
符合相關之規範。 
2. 尖峰系統下，階段 4 之風場完全併入後，此時風場總容量為 864 
MW，僅有 1 種偶發事故案例必須避免在尖峰情況發生，當線路
福興 H(5855)至漢寶 H(5817)第一回線停用時，將使得線路福興
H(5855)至草港分歧 H(7710)第一回線之載流率達 160.75%。 
 
表 4.10  偶發事故尖峰系統停用或檢修線路之載流率結果(採多併接點併入法) 
From To 編號 階段 1 階段 2 階段 3 階段 4 
線路 5停用或檢修之情況 
福興 H(5855) 漢寶 H(5817) 1 停用或檢修 
福興 H(5855) 草港分岐 H(7710) 1 117.94% 132.16% 146.43% 160.75% 
草港分岐 H(7710) 彰濱 H(2301) 1 
 
112.25% 123.30% 134.36% 
 
 4.2.2離岸風場併入台電系統之暫態分析 
本節探討在系統上 345 kV匯流排發生平衡三相短路故障，模擬
彰化離岸風場附近彰濱轄區內彰濱 E(2300)超高壓系統發生三相短路
故障，其三相短路故障之臨界清除時間為 6週波，探討併接點之頻率
與電壓響應情形，相關規範條例如下。 
「台電公司輸電系統規劃準則」 中華民國 97年 6月 2日修
訂 
第二十四條 345kV系統暫態穩定度 
第三款 匯流排三相短路故障之臨界清除時間 6週波以上(不考慮線路
跳脫)。 
20 
 
尖峰電壓(pu) 
階段 1 1.0118 1.0108 0.2118 1.0330 0.8000 
階段 2 1.0068 1.0059 0.2186 1.0284 0.7882 
階段 3 1.0015 1.0008 0.2263 1.0238 0.7752 
階段 4 0.9956 0.9951 0.2342 1.0184 0.7614 
尖峰頻率(Hz) 
階段 1 60 59.9979 59.9259 60.4693 0.0741 
階段 2 60 59.9979 59.9195 60.5153 0.0805 
階段 3 60 59.9980 59.9130 60.5607 0.0870 
階段 4 60 59.9979 59.9065 60.6049 0.0935 
 
表 4.12  匯流排漢寶 H(5817)之電壓與頻率端值(採集中式併入法) 
項目 初始值 末端值 最低值 最高值 初始與最低之差值 
離峰電壓(pu) 
階段 1 1.0076 1.0115 0.1028 1.0512 0.9048 
階段 2 1.0036 1.0115 0.1029 1.0494 0.9007 
階段 3 0.9973 1.0099 0.1024 1.0490 0.8949 
階段 4 0.9919 1.0113 0.1030 1.0455 0.8889 
離峰頻率(Hz) 
階段 1 60 59.9691 59.9271 60.1544 0.0729 
階段 2 60 59.9406 59.8827 60.1654 0.1173 
階段 3 60 59.9136 59.8302 60.2385 0.1698 
階段 4 60 59.8837 59.7902 60.3163 0.2098 
尖峰電壓(pu) 
階段 1 1.0095 1.0088 0.1962 1.0321 0.8133 
階段 2 1.0049 1.0042 0.1974 1.0283 0.8075 
階段 3 0.9999 0.9994 0.1987 1.0242 0.8012 
階段 4 0.9944 0.9940 0.1998 1.0196 0.7946 
尖峰頻率(Hz) 
階段 1 60 59.9979 59.9439 60.3561 0.0561 
階段 2 60 59.9980 59.9388 60.3834 0.0612 
階段 3 60 59.9981 59.9337 60.4121 0.0663 
階段 4 60 59.9980 59.9289 60.4419 0.0711 
 
4.2.2.2風場採分散式併入法與台電系統連接之模擬結果 
模擬結果之詳細的數據資料參考表 4.13 與表 4.14，歸納出以下
之結論： 
1. 匯流排線西之模擬結果，階段 4 之風場完全併入後，此時總風場
容量為 864 MW，離峰與尖峰之電壓掉落幅度各為 0.9284 pu 與
0.7703 pu，頻率擺動範圍各為 59.7903 Hz 到 60.6659 Hz 以及
22 
 
階段 3 60 59.9117 59.8374 60.4285 0.1626 
階段 4 60 59.8838 59.7903 60.5699 0.2097 
尖峰電壓(pu) 
階段 1 1.0164 1.0157 0.2006 1.0383 0.8158 
階段 2 1.0109 1.0102 0.2053 1.0330 0.8056 
階段 3 1.0052 1.0046 0.2110 1.0276 0.7942 
階段 4 0.9987 0.9983 0.2172 1.0214 0.7815 
尖峰頻率(Hz) 
階段 1 60 59.9979 59.9435 60.3775 0.0565 
階段 2 60 59.9980 59.9384 60.4275 0.0616 
階段 3 60 59.9981 59.933 60.4798 0.0670 
階段 4 60 59.9980 59.9278 60.5329 0.0722 
 
4.2.2.3風場採多併接點併入法與台電系統連接之模擬結果 
模擬結果之詳細的數據資料參考表 4.15與表 4.16，歸納出以下
之結論： 
1. 匯流排線西之模擬結果，階段 4之風場完全併入後，此時總風場
容量為 864 MW，離峰與尖峰之電壓掉落幅度各為 0.9297 pu與
0.7807 pu，頻率擺動範圍各為 59.7904 Hz 到 60.6437 Hz 以及
59.9140 Hz到 60.5601 Hz，其範圍差距各為 0.8533 Hz與 0.6461 
Hz。 
2. 匯流排漢寶之模擬結果，階段 4之風場完全併入後，此時總風場
容量為 864 MW，離峰與尖峰之電壓掉落幅度各為 0.9245 pu與
0.7829 pu，頻率擺動範圍各為 59.7904 Hz 到 60.6265 Hz 以及
59.9170 Hz到 60.5555 Hz，其範圍差距各為 0.8361 Hz與 0.6385 
Hz。 
 
表 4.15  匯流排線西 H(5801)之電壓與頻率端值(採多併接點併入法) 
項目 初始值 末端值 最低值 最高值 初始與最低之差值 
離峰電壓(pu) 
階段 1 1.0209 1.0248 0.0758 1.0650 0.9451 
階段 2 1.0168 1.0248 0.0758 1.0632 0.9410 
階段 3 1.0117 1.0246 0.0758 1.0612 0.9359 
階段 4 1.0056 1.0249 0.0759 1.0593 0.9297 
離峰頻率(Hz) 
階段 1 60 59.9693 59.9262 60.1759 0.0738 
階段 2 60 59.9407 59.8828 60.3297 0.1172 
階段 3 60 59.9119 59.8376 60.4894 0.1624 
階段 4 60 59.8839 59.7904 60.6437 0.2096 
尖峰電壓(pu) 
24 
 
 
4.2.3.1風場採集中式併入法與台電系統連接之模擬結果 
本節模擬 345 kV匯流排發生平衡三相短路故障，是否造成風場
與系統解聯，整理出臨界跳脫範圍。若風機電驛監控點為線西 H(5801)，
結果如表 4.17所示，則整理以下之結論： 
1. 離峰情況下，最大臨界跳脫範圍為中火南 E(540)、彰工北 E(550)、
彰濱 E(2300)、全興 E(2350)及南投 E(2400)。 
2. 離峰情況下，階段 1至階段 2風場併入系統後，其臨界範圍縮小
乃因風場變大而電壓初始值下降且電壓掉落幅度降低，但電壓最
低值未低於 0.15 pu，故風機之電壓保護電驛未啟動，如圖 4.24
所示。 
3. 尖峰情況下，任一 345 kV 匯流排發生三相短路故障皆不會造成
風場切離。 
 
表 4.17  風機電驛監控點為線西 H(5801)之 345 kV系統臨界跳脫範圍整理(採集
中式併入法) 
系統 風場階段 風場切離之三相短路故障發生在下列匯流排位置 總數 
離峰 
階段 1 中火南 E(540)、彰工北 E(550)、彰濱 E(2300)、全興E(2350)、南投 E(2400) 5個 
階段 2 
中火南 E(540)、彰工北 E(550)、彰濱 E(2300)、全興
E(2350) 4個 階段 3 
階段 4 
尖峰 
階段 1 
無 0個 階段 2 
階段 3 
階段 4 
 
本節模擬 161 kV匯流排發生平衡三相短路故障，是否造成風場
與系統解聯，整理出臨界跳脫範圍。若風機電驛監控點為線西 H(5801)，
結果如表 4.18所示，則整理以下之結論： 
1. 離峰與尖峰情況，最大臨界跳脫範圍皆為線西 H(5801)、彰濱
H(2301)、草港 H(5819)、草港分歧 H(7710)及草港分歧 H(7711)。 
2. 尖峰情況下，階段 1至階段 2風場併入系統後，其臨界範圍變大
乃因電壓最低值低於 0.15 pu，故風機之電壓保護電驛啟動，如圖
4.25所示。 
 
表 4.18  風機電驛監控點為線西 H(5801)之 161kV系統臨界跳脫範圍整理(採集
中式併入法) 
系統 風場階段 風場切離之三相短路故障發生在下列匯流排位置 總數 
離峰 
階段 1 線西 H(5801)、彰濱 H(2301)、草港 H(5819)、草港分
歧 H(7710)、草港分歧 H(7711) 5個 階段 2 
26 
 
表 4.20  風機電驛監控點為漢寶 H(5817)之 345kV系統臨界跳脫範圍整理(採分
散式併入法) 
系統 風場階段 風場切離之三相短路故障發生在下列匯流排位置 總數 
離峰 
階段 1 中火南 E(540)、彰濱 E(2300)、全興 E(2350)、南投
E(2400) 4個 階段 2 
階段 3 
中火南 E(540)、彰濱 E(2300)、全興 E(2350) 3個 
階段 4 
尖峰 
階段 1 
無 0個 階段 2 
階段 3 
階段 4 
 
本節模擬 161 kV匯流排發生平衡三相短路故障，是否造成風場
與系統解聯，整理出臨界跳脫範圍。若風機電驛監控點為線西 H(5801)，
結果如表 4.21所示，則整理以下之結論： 
1. 離峰與尖峰情況，最大臨界跳脫範圍皆為線西 H(5801)、彰濱
H(2301)、草港 H(5819)、草港分歧 H(7710)及草港分歧 H(7711)。 
2. 尖峰情況下，階段 3至階段 4風場併入系統後，其臨界範圍變大
乃因電壓最低值低於 0.15 pu，故風機之電壓保護電驛啟動。 
若風機電驛監控點為漢寶 H(5817)，結果如表 4.22所示，則整理
以下之結論： 
1. 離峰與尖峰情況，最大臨界跳脫範圍皆為漢寶 H(5817)、彰化
H(3551)及福興 H(5855)。 
 
表 4.21  風機電驛監控點為線西 H(5801)之 161kV系統臨界跳脫範圍整理(採分
散式併入法) 
系統 風場階段 風場切離之三相短路故障發生在下列匯流排位置 總數 
離峰 
階段 1 
線西 H(5801)、彰濱 H(2301)、草港 H(5819)、草港分
歧 H(7710)、草港分歧 H(7711) 5個 
階段 2 
階段 3 
階段 4 
尖峰 
階段 1 
線西 H(5801)、彰濱 H(2301)、草港分歧 H(7710)、草
港分歧 H(7711) 4個 階段 2 
階段 3 
階段 4 線西 H(5801)、彰濱 H(2301)、草港 H(5819)、草港分
歧 H(7710)、草港分歧 H(7711) 5個 
 
表 4.22  風機電驛監控點為漢寶 H(5817)之 161kV系統臨界跳脫範圍整理(採分
散式併入法) 
系統 風場階段 風場切離之三相短路故障發生在下列匯流排位置 總數 
離峰 
階段 1 
漢寶 H(5817)、彰化 H(3551)、福興 H(5855) 3個 
階段 2 
28 
 
表 4.24  風機電驛監控點為線西 H(5801)與漢寶 H(5817)之 161kV系統臨界跳脫
範圍整理(採多併接點併入法) 
系統 風場階段 風場切離之三相短路故障發生在下列匯流排位置 總數 
離峰 
階段 1 線西 H(5801)、漢寶 H(5817)、彰濱 H(2301)、草港
H(5819)、草港分歧 H(7710)、草港分歧 H(7711) 6個 階段 2 
階段 3 線西 H(5801)、漢寶 H(5817)、彰濱 H(2301)、草港
H(5819)、福興 H(5855)、草港分歧 H(7710)、草港分
歧 H(7711) 
7個 
階段 4 
尖峰 
階段 1 
線西 H(5801)、漢寶 H(5817)、彰濱 H(2301)、草港分
歧 H(7710)、草港分歧 H(7711) 5個 
階段 2 
階段 3 
階段 4 
 
4.2.4離岸風場併入之臨界清除時間探討 
本節模擬彰濱超高壓轄區內彰濱 E(2300)發生匯流排三相短路故
障且跳脫其相鄰線路，案例如表 4.25所示，倘若故障清除時間(週波)
過長則導致系統發散無法回復穩定運轉，反之故障清除時間(週波)短
暫則系統受到較安全保護，但此種設備價格隨著動作時間縮短，相對
價格也隨著增加，所以故障清除時間的臨界值反應著系統暫態穩定度
的強弱。台電公司相關規範條例如下： 
「台電公司輸電系統規劃準則」 中華民國 97年 6月 2日修
訂 
第二十四條 345kV系統暫態穩定度 
第一款 線路發生三相短路故障時，非故障端以 4週波清除，而故障
端之臨界清除時間在 4.5週波以上。 
 
表 4.25  臨界清除時間案例 
案例編號 故障端 跳脫線路 
案例 1 彰濱 E(2300) 彰濱至中火南第一回線(2300,540,1) 
案例 2 彰濱 E(2300) 彰濱至全興第一回線(2300,2350,1) 
 
文獻[26]中探討臨界清除時間且其歸納出電力系統臨界清除時
間與電力傳送量及方向、系統結構有關係。本文中亦得到共同之結論
為對相同的故障端而言，此案例為彰濱 E(2300)，跳脫鄰近線路此指
單一回線之線路時，若線路的電力流向為異向，如圖 4.4(a)，則跳脫
流入彰濱之線路其臨界清除時間將比流出彰濱之線路還要大，因為跳
脫流入之線路會使得流經故障端匯流排之流量減少；若線路的電力流
向為彰濱匯流排往其他匯流排，如圖 4.4(b)，則依照電力傳送量大小
作為比較，傳送量小者臨界清除時間大。 
 
30 
 
4.2.4.2風場採分散式併入法與台電系統連接之模擬結果 
模擬結果之詳細的數據資料參考表 4.28與表 4.29，歸納出以下
之結論： 
1. 離峰情況下，階段 4 之風場完全併入後，此時總風場容量為 864 
MW，案例 1與案例 2之臨界清除時間結果各為 12.4219與 12.2188
週波。 
2. 尖峰情況下，階段 4之風場完全併入後，此時總風場容量為 864 
MW，案例 1與案例 2之臨界清除時間結果各為 13.7500與 13.5000
週波。 
 
表 4.28  風場併入前後之系統暫態穩定度故障臨界清除時間結果(採分散式併入
法) 
離峰案例 階段 0 階段 1 階段 2 階段 3 階段 4 
案例 1 12.3672 12.2422 12.2734 12.3281 12.4219 
案例 2 12.1484 12.0391 12.0781 12.1328 12.2188 
尖峰案例 階段 0 階段 1 階段 2 階段 3 階段 4 
案例 1 13.7656 13.7344 13.7656 13.8047 13.7500 
案例 2 13.5703 13.5313 13.5547 13.5547 13.5000 
註：單位為週波。 
 
表 4.29  風場併入前後之線路流量與方向(採分散式併入法) 
From To 編號 階段 0 階段 1 階段 2 階段 3 階段 4 
離峰系統 
彰濱 E(2300) 中火南 E(540) 1 -194.0 -152.6 -110.5 -68.4 -26.4 
彰濱 E(2300) 全興 E(2350) 1 +99.9 +129.4 +159.9 +190.4 +220.8 
尖峰系統 
彰濱 E(2300) 中火南 E(540) 1 -213.8 -172.9 -131.1 -89.4 -47.6 
彰濱 E(2300) 全興 E(2350) 1 +201.8 +231.1 +261.5 291.8 +322.1 
註：正負號代表電力傳送的方向。流量單位為 MW。 
 
4.2.4.3風場採多併接點併入法與台電系統連接之模擬結果 
模擬結果之詳細的數據資料參考表 4.30與表 4.31，歸納出以下
之結論： 
1. 離峰情況下，階段 4 之風場完全併入後，此時總風場容量為 864 
MW，案例 1與案例 2之臨界清除時間結果各為 12.2891與 12.0938
週波。 
2. 尖峰情況下，階段 4之風場完全併入後，此時總風場容量為 864 
MW，案例 1與案例 2之臨界清除時間結果各為 13.7109與 13.4609
週波。 
 
32 
 
發電量比例愈大，故造成的影響愈大。由模擬結果顯示，階段 4之風
場完全併入後，集中式併入法之線西匯流排離峰與尖峰之電壓掉落幅
度各為 0.9201 pu 與 0.7614 pu，頻率擺動範圍各為 59.7902 Hz 到
60.8114 Hz以及 59.9065 Hz到 60.6049 Hz，其範圍差距各為 1.0212 Hz
與 0.6984 Hz，而分散式併入法之線西匯流排離峰與尖峰之電壓掉落
幅度各為 0.9284 pu與 0.7703 pu，頻率擺動範圍各為 59.7903 Hz到
60.6659 Hz以及 59.9103 Hz到 60.5643 Hz，其範圍差距各為 0.8756 Hz
與 0.6540 Hz，多併接點併入法之線西匯流排離峰與尖峰之電壓掉落
幅度各為 0.9297 pu與 0.7807 pu，頻率擺動範圍各為 59.7904 Hz到
60.6437 Hz以及 59.9140 Hz到 60.5601 Hz，其範圍差距各為 0.8533 Hz
與 0.6461 Hz。集中式併入法之漢寶匯流排離峰與尖峰之電壓掉落幅
度各為 0.8889 pu 與 0.7946 pu，頻率擺動範圍各為 59.7902 Hz 到
60.3163 Hz以及 59.9289 Hz到 60.4419 Hz，其範圍差距各為 0.5261 Hz
與 0.5130 Hz，而分散式併入法之漢寶匯流排之離峰與尖峰之電壓掉
落幅度各為 0.8936 pu與 0.7815 pu，頻率擺動範圍各為 59.7903 Hz到
60.5699 Hz以及 59.9278 Hz到 60.5329 Hz，其範圍差距各為 0.7796 Hz
與 0.6051 Hz，多併接點併入法之漢寶匯流排之離峰與尖峰之電壓掉
落幅度各為 0.9245 pu與 0.7829 pu，頻率擺動範圍各為 59.7904 Hz到
60.6265 Hz以及 59.9170 Hz到 60.5555 Hz，其範圍差距各為 0.8361 Hz
與 0.6385 Hz。 
探討風場臨界跳脫範圍，由模擬結果顯示，離峰情況下，無論何
種併接方式最大 345 kV 臨界跳脫範圍皆為中火南 E(540)、彰工北
E(550)、彰濱 E(2300)、全興 E(2350)及南投 E(2400)，最大 161 kV臨
界跳脫範圍，集中式併入法為線西 H(5801)、彰濱 H(2301)、草港
H(5819)、草港分歧 H(7710)及草港分歧 H(7711)；分散式併入法為線
西 H(5801)、彰濱 H(2301)、草港 H(5819)、草港分歧 H(7710)、草港
分歧 H(7711)、漢寶 H(5817)、彰化 H(3551)及福興 H(5855)，多併接
點併入法為線西H(5801)、漢寶H(5817)、彰濱H(2301)、草港H(5819)、
福興 H(5855)、草港分歧 H(7710)及草港分歧 H(7711)；尖峰情況下，
無論何種併入法最大 345 kV臨界跳脫範圍皆為任一 345 kV匯流排發
生三相短路故障皆不會造成風場切離，最大 161 kV臨界跳脫範圍，
集中式併入法為線西 H(5801)、彰濱 H(2301)、草港 H(5819)、草港分
歧 H(7710)及草港分歧 H(7711)，分散式併入法為線西 H(5801)、彰濱
H(2301)、草港 H(5819)、草港分歧 H(7710)、草港分歧 H(7711)、漢
寶 H(5817)、彰化 H(3551)及福興 H(5855)，多併接點併入法為線西
H(5801)、漢寶 H(5817)、彰濱 H(2301)、草港分歧 H(7710)及草港分
歧 H(7711)。 
探討臨界清除時間，由模擬結果顯示，若線路的電力流向為異向，
34 
 
[11] L. P. Lazaridis, Economic Comparison of HVAC and HVDC Solutions for Large 
Offshore Wind Farms under Special Consideration of Reliability, M.S. Thesis, 
Royal Institute of Technology, Department of Electrical Engineering, Stockholm, 
Sweden, 2005. 
[12] R. Billinton and W. Wangdee, “Reliability-Based Transmission Reinforcement 
Planning Associated with Large-Scale Wind Farms,” IEEE Transactions on 
Power Systems, vol. 22, no. 1, 2007, pp. 34-41. 
[13] M. Zhao, Z. Chen and F. Blaabjerg, “Optimisation of Electrical System for 
Offshore Wind Farms via Genetic Algorithm,” IET Renewable Power Generation, 
vol. 3, no. 2, 2009, pp. 205-216. 
[14] T. Ackermann, Wind Power in Power Systems, England:John Wiley & Sons, 
January 2005, pp.53-59. 
[15] S. J. Shao and V. G. Agelidis, “Review of DC System Technologies for Large 
Scale Integration of Wind Energy Systems with Electricity Grids,” Energies ISSN 
1996-1073, vol. 3, no. 6, 2010, pp. 1303-1319. 
[16] G. Quinonez-Varela, G.W. Ault, O. Anaya-Lara and J. R. McDonald, “Electrical 
Collector System Options for Large Offshore Wind Farms,” IET Renewable 
Power Generation, vol. 1, no. 2, 2007, pp. 107-114. 
[17] A. Sannino, H. Breder and E. K. Nielsen, “Reliability of Collection Grids for 
Large Offshore Wind Parks,” IEEE Conference on Probabilistic Methods 
Applied to Power Systems, 2006, pp. 1-6. 
[18] Z. Li, M. Zhao and Z. Chen, “Efficiency Evaluation for Offshore Wind Farms,” 
IEEE Conference on Power System Technology, 2006, pp. 1-6. 
[19] T. Ackermann, Wind Power in Power Systems, England: John Wiley & Sons, 
2005, pp.484-500. 
[20] 陳勇錩，高壓直流系統常見事故之研究，碩士論文，國立台北科技大學電
機工程研究所，台北，2009年 6月。 
[21] 台灣電力公司，「台電公司輸電系統規劃準則」，台北，2008年 6月。 
[22] 台灣電力公司，「台電公司再生能源發電系統併聯技術要點」，台北，2009
年 12月。 
[23] 李清吟、林群峰、陳昭榮、蔡孟伸、周至如、許富淵、韓佳佑、莊東華、
楊任軒、鄭諭嶸、陳勇錩、徐景河、姚君憲、潘建宏，「大型風場系統衝擊
檢討之研究報告」，TPC-546-4102-9703，台北，2009年11月。  
[24] Power Technology Inc., “PSS/E-29 Online Documentation,” USA, October 2002. 
[25] 葉添水，批次檔與 DOS 小技巧，第二版，台北：第三波文化事業股份有限
公司，1995年 8月。 
[26] 蔡文達、陳昭榮，「台灣系統區域電力傳送量與超高壓輸電線臨界清除時間
之探討」，中華民國第二十六屆電力工程研討會，中壢，2005，第 1675-1679
頁。 
 
36 
 
研討會 
國內研討會論文發表：__17__篇 
國外研討會論文發表：__7__篇 
[1]  Yuan-Kang Wu, Ching-Yin Lee, Jing-He Shu, “Taiwan first large-scale offshore wind 
farm connection–a real project case study,” Proceedings of the 2010 IEEE Industry 
Applications Society Annual Meeting, Houston, Texas, U.S.A., Oct. 3-7, (2010). (EI) 
[2]  Yuan-Kang Wu, Ching-Ying Lee, Huang-Yu Chao and Ming-Jen Chang, “System 
Impact Study for the Future Large-Scale Offshore Wind Farm around Penghu 
Archipelago,” 2010 International Conference on Power System Technology 
(POWERCON 2010), Hangzhou, China, October 24-28 (2010). (EI) 
[3]  Yuan-Kang Wu and Ching-Ying Lee, “Actual Experience on the Short-Term Wind 
Power Forecasting at Penghu – from an Island Perspective,” 2010 International 
Conference on Power System Technology (POWERCON 2010), Hangzhou, China, 
October 24-28 (2010). (EI) 
[4]  李清吟,張原智,陳昭榮, “竹科69kV第二環路保護系統之分析研究,”中華民國第31屆
電力工程研討會, 臺灣臺南, 崑山科技大學, ISBN978- 986- 6448- 38- 6,（2010）。 
[5]  李清吟,吳滄堯,陳昭榮, “澎湖獨立系統風力發電最大占比及系統穩定度分析,”中華
民國第31屆電力工程研討會, 臺灣臺南, 12月3-4日, 崑山科技大學, ISBN978- 986- 
6448- 38- 6,（2010）。 
[6]  李清吟,徐景河,吳元康,陳昭榮,劉文燦, “大型風場併入台電系統之暫態穩定度改
善 ,”中華民國第31屆電力工程研討會 , 臺灣臺南 , 12月3-4日 , 崑山科技大學 , 
ISBN978- 986- 6448- 38- 6,（2010）。 
[7]  李清吟,徐景河,陳昭榮,吳元康,劉文燦, “大型風場因風速擾動引起之系統衝擊改
善 ,”中華民國第31屆電力工程研討會 , 臺灣臺南 , 12月3-4日 , 崑山科技大學 , 
ISBN978- 986- 6448- 38- 6,（2010）。 
[8]  李清吟,徐景河,吳元康,陳昭榮,劉文燦, “澎湖離岸風場及海纜併接架構下之系統衝
擊研究,”中華民國第31屆電力工程研討會, 臺灣臺南, 12月3-4日, 崑山科技大學, 
ISBN978- 986- 6448- 38- 6,（2010）。 
[9]  李清吟,姚君憲,陳昭榮,潘建宏,韓佳佑,林求忠,楊金石,林群峰, “考慮海纜傳輸容量
下評估澎湖離岸風場最大併接容量,”中華民國第31屆電力工程研討會, 臺灣臺南, 
12月3-4日, 崑山科技大學, ISBN978- 986- 6448- 38- 6,（2010）。 
[10]  李清吟,潘建宏,趙皇佑,吳元康,陳昭榮, “離岸風場排列採用輻射型與星型之系統衝
擊分析,”中華民國第31屆電力工程研討會, 臺灣臺南, 12月3-4日, 崑山科技大學, 
ISBN978- 986- 6448- 38- 6,（2010）。 
[11]  李清吟,潘建宏,陳自立,徐琨瑋,陳昭榮, “彰化離岸風場採用型態B與型態C風機之系
統衝擊與改善研究,”中華民國第31屆電力工程研討會, 臺灣臺南, 12月3-4日, 崑山
科技大學, ISBN978- 986- 6448- 38- 6,（2010）。 
[12]  李清吟,潘建宏,陳昭榮,劉立瀚,張書維,廖永富,王聖憲, “不同風場容量對電力系統之
衝擊分析,”中華民國第31屆電力工程研討會, 臺灣臺南, 12月3-4日, 崑山科技大學, 
ISBN978- 986- 6448- 38- 6,（2010）。 
[13]  李清吟,吳元康,黃勇豪,徐景河, “澎湖200MW離岸風場採用不同型式風機對系統穩
態衝擊的比較分析,” 2010台灣風能學術研討會, 臺灣澎湖, 12月17-18日, 澎湖科技
大學,（2010）。 
[14]  李清吟,吳元康,趙皇佑,潘建宏, “澎湖200MW離岸風場採用不同風機排列對系統衝
擊的比較分析,” 2010台灣風能學術研討會, 臺灣澎湖, 12月17-18日, 澎湖科技大學,
（2010）。 
[15]  吳元康,李清吟,周至如,陳自立,潘建宏, “澎湖離岸風場對於故障臨界清除時間的影
響,”2010台灣風能學術研討會, 臺灣澎湖, 12月17-18日, 澎湖科技大學,（2010）。 
[16]  李清吟, 姚君憲, 陳昭榮, 吳元康, 張銘仁, “使用DFIG與DDSG風機評估澎湖風力最
大占比,”2010台灣風能學術研討會, 臺灣澎湖, 12月17-18日, 澎湖科技大學,（2010）。 
[17]  劉文燦, 陳昭榮, 李清吟, 吳元康, “台灣陸岸式和離岸式風力發電廠之場址規劃評估
及財務分析探討,”2010台灣風能學術研討會, 臺灣澎湖, 12月17-18日, 澎湖科技大學,
（2010）。 
[18]  Shu Fan, Yuan-Kang Wu, Wei-Jen Lee, Ching-Yin Lee, “Comparative Study on Load 
Forecasting Technologies for Large Geographical Distributed Loads,” Proceedings of 
the 2011 IEEE PES General Meeting, Detroit Michigan, USA, July 24th-28th, (2011) 
(EI) 
國科會補助計畫衍生研發成果推廣資料表
日期:2011/12/08
國科會補助計畫
計畫名稱: 離岸風場與電力系統併聯衝擊與改善 (II)
計畫主持人: 李清吟
計畫編號: 100-2623-E-236-001-ET 學門領域: 能源新利用技術研發
無研發成果推廣資料
其他成果 
(無法以量化表達之成
果如辦理學術活動、獲
得獎項、重要國際合
作、研究成果國際影響
力及其他協助產業技
術發展之具體效益事
項等，請以文字敘述填
列。) 
無 
 成果項目 量化 名稱或內容性質簡述 
測驗工具(含質性與量性) 0  
課程/模組 0  
電腦及網路系統或工具 0  
教材 0  
舉辦之活動/競賽 0  
研討會/工作坊 0  
電子報、網站 0  
科 
教 
處 
計 
畫 
加 
填 
項 
目 計畫成果推廣之參與（閱聽）人數 0  
 
